*SPEF "ieee 1481-1999"
*DESIGN "piso"
*DATE "02:23:38 Saturday January 24, 2026"
*VENDOR "The OpenROAD Project"
*PROGRAM "OpenROAD"
*VERSION "edf00dff99f6c40d67a30c0e22a8191c5d2ed9d6"
*DESIGN_FLOW "NAME_SCOPE LOCAL" "PIN_CAP NONE"
*DIVIDER /
*DELIMITER :
*BUS_DELIMITER []
*T_UNIT 1 NS
*C_UNIT 1 PF
*R_UNIT 1 OHM
*L_UNIT 1 HENRY

*NAME_MAP
*1 clk
*2 data_serial_o[0]
*3 data_serial_o[1]
*4 fifo_data_i[0]
*5 fifo_data_i[10]
*6 fifo_data_i[11]
*7 fifo_data_i[12]
*8 fifo_data_i[13]
*9 fifo_data_i[14]
*10 fifo_data_i[15]
*11 fifo_data_i[1]
*12 fifo_data_i[2]
*13 fifo_data_i[3]
*14 fifo_data_i[4]
*15 fifo_data_i[5]
*16 fifo_data_i[6]
*17 fifo_data_i[7]
*18 fifo_data_i[8]
*19 fifo_data_i[9]
*20 fifo_empty_i
*21 fifo_rd_en_o
*22 rst_n
*23 valid_serial_o
*26 _000_
*27 _001_
*28 _002_
*29 _003_
*30 _004_
*31 _005_
*32 _006_
*33 _007_
*34 _008_
*35 _009_
*36 _010_
*37 _011_
*38 _012_
*39 _013_
*40 _014_
*41 _015_
*42 _016_
*43 _017_
*44 _018_
*45 _019_
*46 _020_
*47 _021_
*48 _022_
*49 _023_
*50 _024_
*51 _025_
*52 _026_
*53 _027_
*54 _028_
*55 _029_
*56 _030_
*57 _031_
*58 _032_
*59 _033_
*60 _034_
*61 _035_
*62 _036_
*63 _037_
*64 _038_
*65 _039_
*66 _040_
*67 _041_
*68 _042_
*69 _043_
*70 _044_
*71 _045_
*72 clknet_0_clk
*73 clknet_1_0__leaf_clk
*74 clknet_1_1__leaf_clk
*75 count\[0\]
*76 count\[1\]
*77 count\[2\]
*78 count\[3\]
*79 net1
*80 net10
*81 net11
*82 net12
*83 net13
*84 net14
*85 net15
*86 net16
*87 net17
*88 net18
*89 net19
*90 net2
*91 net20
*92 net21
*93 net22
*94 net23
*95 net24
*96 net25
*97 net26
*98 net27
*99 net28
*100 net29
*101 net3
*102 net30
*103 net31
*104 net32
*105 net33
*106 net34
*107 net35
*108 net36
*109 net37
*110 net38
*111 net39
*112 net4
*113 net40
*114 net41
*115 net42
*116 net5
*117 net6
*118 net7
*119 net8
*120 net9
*121 shift_reg\[10\]
*122 shift_reg\[11\]
*123 shift_reg\[12\]
*124 shift_reg\[13\]
*125 shift_reg\[14\]
*126 shift_reg\[15\]
*127 shift_reg\[2\]
*128 shift_reg\[3\]
*129 shift_reg\[4\]
*130 shift_reg\[5\]
*131 shift_reg\[6\]
*132 shift_reg\[7\]
*133 shift_reg\[8\]
*134 shift_reg\[9\]
*135 state\[1\]
*136 ANTENNA_clkbuf_0_clk_A
*137 ANTENNA_input10_A
*138 ANTENNA_input11_A
*139 ANTENNA_input12_A
*140 ANTENNA_input13_A
*141 ANTENNA_input14_A
*142 ANTENNA_input15_A
*143 ANTENNA_input16_A
*144 ANTENNA_input17_A
*145 ANTENNA_input18_A
*146 ANTENNA_input1_A
*147 ANTENNA_input2_A
*148 ANTENNA_input3_A
*149 ANTENNA_input4_A
*150 ANTENNA_input5_A
*151 ANTENNA_input6_A
*152 ANTENNA_input7_A
*153 ANTENNA_input8_A
*154 ANTENNA_input9_A
*155 FILLER_0_101
*156 FILLER_0_23
*157 FILLER_0_27
*158 FILLER_0_29
*159 FILLER_0_41
*160 FILLER_0_53
*161 FILLER_0_57
*162 FILLER_0_69
*163 FILLER_0_81
*164 FILLER_0_85
*165 FILLER_0_97
*166 FILLER_10_105
*167 FILLER_10_14
*168 FILLER_10_23
*169 FILLER_10_27
*170 FILLER_10_29
*171 FILLER_10_52
*172 FILLER_10_63
*173 FILLER_10_75
*174 FILLER_10_8
*175 FILLER_10_83
*176 FILLER_10_85
*177 FILLER_10_97
*178 FILLER_11_10
*179 FILLER_11_106
*180 FILLER_11_23
*181 FILLER_11_35
*182 FILLER_11_51
*183 FILLER_11_55
*184 FILLER_11_86
*185 FILLER_11_98
*186 FILLER_12_107
*187 FILLER_12_26
*188 FILLER_12_29
*189 FILLER_12_41
*190 FILLER_12_53
*191 FILLER_12_61
*192 FILLER_12_95
*193 FILLER_13_101
*194 FILLER_13_107
*195 FILLER_13_35
*196 FILLER_13_65
*197 FILLER_13_77
*198 FILLER_13_8
*199 FILLER_13_89
*200 FILLER_14_105
*201 FILLER_14_13
*202 FILLER_14_20
*203 FILLER_14_46
*204 FILLER_14_85
*205 FILLER_14_97
*206 FILLER_15_105
*207 FILLER_15_23
*208 FILLER_15_53
*209 FILLER_15_93
*210 FILLER_16_26
*211 FILLER_16_29
*212 FILLER_16_37
*213 FILLER_16_61
*214 FILLER_16_81
*215 FILLER_16_85
*216 FILLER_17_101
*217 FILLER_17_27
*218 FILLER_17_29
*219 FILLER_17_41
*220 FILLER_17_53
*221 FILLER_17_57
*222 FILLER_17_69
*223 FILLER_17_81
*224 FILLER_17_85
*225 FILLER_17_97
*226 FILLER_1_10
*227 FILLER_1_57
*228 FILLER_1_69
*229 FILLER_1_81
*230 FILLER_1_87
*231 FILLER_2_105
*232 FILLER_2_26
*233 FILLER_2_37
*234 FILLER_2_49
*235 FILLER_2_61
*236 FILLER_2_73
*237 FILLER_2_81
*238 FILLER_2_85
*239 FILLER_2_97
*240 FILLER_3_105
*241 FILLER_3_28
*242 FILLER_3_40
*243 FILLER_3_52
*244 FILLER_3_57
*245 FILLER_3_81
*246 FILLER_3_93
*247 FILLER_4_105
*248 FILLER_4_23
*249 FILLER_4_27
*250 FILLER_4_29
*251 FILLER_4_63
*252 FILLER_4_73
*253 FILLER_4_85
*254 FILLER_4_97
*255 FILLER_5_24
*256 FILLER_5_65
*257 FILLER_5_77
*258 FILLER_5_8
*259 FILLER_5_86
*260 FILLER_6_105
*261 FILLER_6_25
*262 FILLER_6_29
*263 FILLER_6_41
*264 FILLER_6_59
*265 FILLER_6_67
*266 FILLER_6_8
*267 FILLER_7_10
*268 FILLER_7_104
*269 FILLER_7_31
*270 FILLER_7_35
*271 FILLER_7_67
*272 FILLER_7_84
*273 FILLER_7_92
*274 FILLER_8_101
*275 FILLER_8_11
*276 FILLER_8_25
*277 FILLER_8_29
*278 FILLER_8_37
*279 FILLER_8_80
*280 FILLER_8_85
*281 FILLER_8_97
*282 FILLER_9_31
*283 FILLER_9_57
*284 FILLER_9_69
*285 FILLER_9_81
*286 FILLER_9_87
*287 PHY_EDGE_ROW_0_Left_18
*288 PHY_EDGE_ROW_0_Right_0
*289 PHY_EDGE_ROW_10_Left_28
*290 PHY_EDGE_ROW_10_Right_10
*291 PHY_EDGE_ROW_11_Left_29
*292 PHY_EDGE_ROW_11_Right_11
*293 PHY_EDGE_ROW_12_Left_30
*294 PHY_EDGE_ROW_12_Right_12
*295 PHY_EDGE_ROW_13_Left_31
*296 PHY_EDGE_ROW_13_Right_13
*297 PHY_EDGE_ROW_14_Left_32
*298 PHY_EDGE_ROW_14_Right_14
*299 PHY_EDGE_ROW_15_Left_33
*300 PHY_EDGE_ROW_15_Right_15
*301 PHY_EDGE_ROW_16_Left_34
*302 PHY_EDGE_ROW_16_Right_16
*303 PHY_EDGE_ROW_17_Left_35
*304 PHY_EDGE_ROW_17_Right_17
*305 PHY_EDGE_ROW_1_Left_19
*306 PHY_EDGE_ROW_1_Right_1
*307 PHY_EDGE_ROW_2_Left_20
*308 PHY_EDGE_ROW_2_Right_2
*309 PHY_EDGE_ROW_3_Left_21
*310 PHY_EDGE_ROW_3_Right_3
*311 PHY_EDGE_ROW_4_Left_22
*312 PHY_EDGE_ROW_4_Right_4
*313 PHY_EDGE_ROW_5_Left_23
*314 PHY_EDGE_ROW_5_Right_5
*315 PHY_EDGE_ROW_6_Left_24
*316 PHY_EDGE_ROW_6_Right_6
*317 PHY_EDGE_ROW_7_Left_25
*318 PHY_EDGE_ROW_7_Right_7
*319 PHY_EDGE_ROW_8_Left_26
*320 PHY_EDGE_ROW_8_Right_8
*321 PHY_EDGE_ROW_9_Left_27
*322 PHY_EDGE_ROW_9_Right_9
*323 TAP_TAPCELL_ROW_0_36
*324 TAP_TAPCELL_ROW_0_37
*325 TAP_TAPCELL_ROW_0_38
*326 TAP_TAPCELL_ROW_10_52
*327 TAP_TAPCELL_ROW_10_53
*328 TAP_TAPCELL_ROW_11_54
*329 TAP_TAPCELL_ROW_12_55
*330 TAP_TAPCELL_ROW_12_56
*331 TAP_TAPCELL_ROW_13_57
*332 TAP_TAPCELL_ROW_14_58
*333 TAP_TAPCELL_ROW_14_59
*334 TAP_TAPCELL_ROW_15_60
*335 TAP_TAPCELL_ROW_16_61
*336 TAP_TAPCELL_ROW_16_62
*337 TAP_TAPCELL_ROW_17_63
*338 TAP_TAPCELL_ROW_17_64
*339 TAP_TAPCELL_ROW_17_65
*340 TAP_TAPCELL_ROW_1_39
*341 TAP_TAPCELL_ROW_2_40
*342 TAP_TAPCELL_ROW_2_41
*343 TAP_TAPCELL_ROW_3_42
*344 TAP_TAPCELL_ROW_4_43
*345 TAP_TAPCELL_ROW_4_44
*346 TAP_TAPCELL_ROW_5_45
*347 TAP_TAPCELL_ROW_6_46
*348 TAP_TAPCELL_ROW_6_47
*349 TAP_TAPCELL_ROW_7_48
*350 TAP_TAPCELL_ROW_8_49
*351 TAP_TAPCELL_ROW_8_50
*352 TAP_TAPCELL_ROW_9_51
*353 _046_
*354 _047_
*355 _048_
*356 _049_
*357 _050_
*358 _051_
*359 _052_
*360 _053_
*361 _054_
*362 _055_
*363 _056_
*364 _057_
*365 _058_
*366 _059_
*367 _060_
*368 _061_
*369 _062_
*370 _063_
*371 _064_
*372 _065_
*373 _066_
*374 _067_
*375 _068_
*376 _069_
*377 _070_
*378 _071_
*379 _072_
*380 _073_
*381 _074_
*382 _075_
*383 _076_
*384 _077_
*385 _078_
*386 _079_
*387 _080_
*388 _081_
*389 _082_
*390 _083_
*391 _084_
*392 _085_
*393 _086_
*394 _087_
*395 _088_
*396 _089_
*397 _090_
*398 _091_
*399 _092_
*400 _093_
*401 _094_
*402 _095_
*403 _096_
*404 _097_
*405 _098_
*406 _099_
*407 _100_
*408 _101_
*409 _102_
*410 _103_
*411 _104_
*412 _105_
*413 _106_
*414 _107_
*415 _108_
*416 _109_
*417 _110_
*418 _111_
*419 _112_
*420 _113_
*421 _114_
*422 clkbuf_0_clk
*423 clkbuf_1_0__f_clk
*424 clkbuf_1_1__f_clk
*425 clkload0
*426 fanout23
*427 fanout24
*428 fanout25
*429 fanout26
*430 fanout27
*431 fanout28
*432 fanout29
*433 fanout30
*434 fanout31
*435 fanout32
*436 fanout33
*437 fanout34
*438 fanout35
*439 fanout36
*440 fanout37
*441 fanout38
*442 fanout39
*443 fanout40
*444 fanout41
*445 fanout42
*446 input1
*447 input10
*448 input11
*449 input12
*450 input13
*451 input14
*452 input15
*453 input16
*454 input17
*455 input18
*456 input2
*457 input3
*458 input4
*459 input5
*460 input6
*461 input7
*462 input8
*463 input9
*464 output19
*465 output20
*466 output21
*467 output22

*PORTS
clk I
data_serial_o[0] O
data_serial_o[1] O
fifo_data_i[0] I
fifo_data_i[10] I
fifo_data_i[11] I
fifo_data_i[12] I
fifo_data_i[13] I
fifo_data_i[14] I
fifo_data_i[15] I
fifo_data_i[1] I
fifo_data_i[2] I
fifo_data_i[3] I
fifo_data_i[4] I
fifo_data_i[5] I
fifo_data_i[6] I
fifo_data_i[7] I
fifo_data_i[8] I
fifo_data_i[9] I
fifo_empty_i I
fifo_rd_en_o O
rst_n I
valid_serial_o O

*D_NET *1 0.00616014
*CONN
*P clk I
*I *422:A I *D sky130_fd_sc_hd__clkbuf_16
*I *136:DIODE I *D sky130_fd_sc_hd__diode_2
*CAP
1 clk 0.00245399
2 *422:A 0.000100467
3 *136:DIODE 0
4 *1:11 0.000100467
5 *1:9 0.00245399
6 *422:A *95:39 5.40971e-05
7 *1:9 *374:A1 9.70251e-05
8 *1:9 *405:CLK 0.000413155
9 *1:9 *441:A 0
10 *1:9 *22:13 0.000108397
11 *1:9 *28:10 0.000110913
12 *1:9 *30:10 7.70038e-05
13 *1:9 *32:10 2.84912e-05
14 *1:9 *72:14 0
15 *1:9 *73:71 0.000139647
16 *1:9 *107:58 0
17 *1:9 *111:25 0
18 *1:9 *127:10 2.24973e-05
*RES
1 clk *1:9 36.03 
2 *1:9 *1:11 15 
3 *1:11 *136:DIODE 23 
4 *1:11 *422:A 24.595 
*END

*D_NET *2 0.000731125
*CONN
*P data_serial_o[0] O
*I *464:X O *D sky130_fd_sc_hd__buf_4
*CAP
1 data_serial_o[0] 0.000365563
2 *464:X 0.000365563
*RES
1 *464:X data_serial_o[0] 47.7745 
*END

*D_NET *3 0.000843747
*CONN
*P data_serial_o[1] O
*I *465:X O *D sky130_fd_sc_hd__buf_4
*CAP
1 data_serial_o[1] 0.000390946
2 *465:X 0.000390946
3 data_serial_o[1] *91:8 6.18548e-05
*RES
1 *465:X data_serial_o[1] 48.7451 
*END

*D_NET *4 0.00138395
*CONN
*P fifo_data_i[0] I
*I *446:A I *D sky130_fd_sc_hd__clkbuf_1
*I *146:DIODE I *D sky130_fd_sc_hd__diode_2
*CAP
1 fifo_data_i[0] 9.4267e-05
2 *446:A 0.000201415
3 *146:DIODE 0.000144578
4 *4:9 0.00044026
5 *146:DIODE *145:DIODE 0.00014196
6 *146:DIODE *22:13 5.3304e-05
7 *146:DIODE *88:10 5.67058e-05
8 *446:A *154:DIODE 3.71251e-05
9 *446:A *73:87 5.19192e-05
10 *4:9 *11:13 7.73604e-05
11 *4:9 *22:13 8.06957e-05
12 *4:9 *73:87 4.35681e-06
*RES
1 fifo_data_i[0] *4:9 8.82134 
2 *4:9 *146:DIODE 41.0036 
3 *4:9 *446:A 41.8321 
*END

*D_NET *5 0.00132398
*CONN
*P fifo_data_i[10] I
*I *456:A I *D sky130_fd_sc_hd__clkbuf_1
*I *147:DIODE I *D sky130_fd_sc_hd__diode_2
*CAP
1 fifo_data_i[10] 7.82208e-05
2 *456:A 0.000228723
3 *147:DIODE 0.000162216
4 *5:9 0.000469159
5 *147:DIODE *143:DIODE 0.000141954
6 *147:DIODE *19:13 5.50106e-05
7 *147:DIODE *86:14 5.50049e-05
8 *456:A *74:51 0
9 *5:9 *6:13 6.68449e-05
10 *5:9 *19:13 6.68449e-05
*RES
1 fifo_data_i[10] *5:9 8.73547 
2 *5:9 *147:DIODE 41.48 
3 *5:9 *456:A 42.3086 
*END

*D_NET *6 0.00109409
*CONN
*P fifo_data_i[11] I
*I *148:DIODE I *D sky130_fd_sc_hd__diode_2
*I *457:A I *D sky130_fd_sc_hd__clkbuf_1
*CAP
1 fifo_data_i[11] 0.00032664
2 *148:DIODE 8.00494e-05
3 *457:A 0
4 *6:13 0.000406689
5 *148:DIODE *101:8 6.26126e-05
6 *148:DIODE *112:20 5.67058e-05
7 *6:13 *7:13 9.45464e-05
8 *6:13 *8:13 0
9 *6:13 *19:13 0
10 *6:13 *45:8 0
11 *5:9 *6:13 6.68449e-05
*RES
1 fifo_data_i[11] *6:13 27.0795 
2 *6:13 *457:A 23 
3 *6:13 *148:DIODE 25.0714 
*END

*D_NET *7 0.00149528
*CONN
*P fifo_data_i[12] I
*I *458:A I *D sky130_fd_sc_hd__clkbuf_1
*I *149:DIODE I *D sky130_fd_sc_hd__diode_2
*CAP
1 fifo_data_i[12] 0.000272318
2 *458:A 0
3 *149:DIODE 0.000202554
4 *7:13 0.000474872
5 *149:DIODE *151:DIODE 4.19743e-05
6 *149:DIODE *460:A 4.00259e-06
7 *149:DIODE *9:13 7.42621e-05
8 *149:DIODE *116:18 0.000141052
9 *7:13 *8:13 9.12112e-05
10 *7:13 *9:13 9.84851e-05
11 *7:13 *45:8 0
12 *7:13 *112:8 0
13 *6:13 *7:13 9.45464e-05
*RES
1 fifo_data_i[12] *7:13 27.1179 
2 *7:13 *149:DIODE 27.4536 
3 *7:13 *458:A 23 
*END

*D_NET *8 0.00102504
*CONN
*P fifo_data_i[13] I
*I *150:DIODE I *D sky130_fd_sc_hd__diode_2
*I *459:A I *D sky130_fd_sc_hd__clkbuf_1
*CAP
1 fifo_data_i[13] 0.000293778
2 *150:DIODE 7.14448e-05
3 *459:A 0
4 *8:13 0.000365223
5 *150:DIODE *116:10 2.30292e-05
6 *8:13 *9:13 0.000180356
7 *8:13 *116:10 0
8 *6:13 *8:13 0
9 *7:13 *8:13 9.12112e-05
*RES
1 fifo_data_i[13] *8:13 27.0795 
2 *8:13 *459:A 23 
3 *8:13 *150:DIODE 24.5743 
*END

*D_NET *9 0.00142904
*CONN
*P fifo_data_i[14] I
*I *151:DIODE I *D sky130_fd_sc_hd__diode_2
*I *460:A I *D sky130_fd_sc_hd__clkbuf_1
*CAP
1 fifo_data_i[14] 0.000348655
2 *151:DIODE 5.09092e-05
3 *460:A 2.1727e-05
4 *9:13 0.000421291
5 *151:DIODE *116:18 5.50106e-05
6 *151:DIODE *117:8 5.50106e-05
7 *9:13 *10:17 7.73604e-05
8 *149:DIODE *151:DIODE 4.19743e-05
9 *149:DIODE *460:A 4.00259e-06
10 *149:DIODE *9:13 7.42621e-05
11 *7:13 *9:13 9.84851e-05
12 *8:13 *9:13 0.000180356
*RES
1 fifo_data_i[14] *9:13 29.6421 
2 *9:13 *460:A 23.4971 
3 *9:13 *151:DIODE 24.5743 
*END

*D_NET *10 0.00293554
*CONN
*P fifo_data_i[15] I
*I *152:DIODE I *D sky130_fd_sc_hd__diode_2
*I *461:A I *D sky130_fd_sc_hd__clkbuf_1
*CAP
1 fifo_data_i[15] 0.000491046
2 *152:DIODE 4.98088e-05
3 *461:A 2.1727e-05
4 *10:17 0.000562582
5 *152:DIODE *144:DIODE 0.000143655
6 *152:DIODE *20:15 6.67283e-05
7 *152:DIODE *106:6 0.000361027
8 *152:DIODE *118:6 3.53115e-05
9 *461:A *20:15 4.00259e-06
10 *10:17 *466:A 0
11 *10:17 *20:15 0.000519132
12 *10:17 *21:10 0.000143655
13 *10:17 *106:6 0.000274078
14 *10:17 *107:12 0.000185428
15 *9:13 *10:17 7.73604e-05
*RES
1 fifo_data_i[15] *10:17 35.1728 
2 *10:17 *461:A 23.4971 
3 *10:17 *152:DIODE 26.9564 
*END

*D_NET *11 0.00150272
*CONN
*P fifo_data_i[1] I
*I *153:DIODE I *D sky130_fd_sc_hd__diode_2
*I *462:A I *D sky130_fd_sc_hd__clkbuf_1
*CAP
1 fifo_data_i[1] 0.000284398
2 *153:DIODE 2.044e-05
3 *462:A 2.34823e-05
4 *11:13 0.00032832
5 *153:DIODE *376:B1 8.1796e-05
6 *153:DIODE *120:10 0.000130423
7 *11:13 *154:DIODE 0.000141879
8 *11:13 *376:B1 3.22879e-05
9 *11:13 *463:A 5.3304e-05
10 *11:13 *12:9 9.45464e-05
11 *11:13 *22:13 0
12 *11:13 *73:87 0.000177778
13 *11:13 *120:10 5.67058e-05
14 *4:9 *11:13 7.73604e-05
*RES
1 fifo_data_i[1] *11:13 28.1566 
2 *11:13 *462:A 23.4971 
3 *11:13 *153:DIODE 24.5743 
*END

*D_NET *12 0.00141395
*CONN
*P fifo_data_i[2] I
*I *463:A I *D sky130_fd_sc_hd__clkbuf_1
*I *154:DIODE I *D sky130_fd_sc_hd__diode_2
*CAP
1 fifo_data_i[2] 0.000104012
2 *463:A 7.07701e-05
3 *154:DIODE 0.000285595
4 *12:9 0.000460377
5 *154:DIODE *73:87 1.02029e-05
6 *154:DIODE *79:8 5.67058e-05
7 *12:9 *13:13 9.12112e-05
8 *12:9 *73:87 8.22421e-06
9 *446:A *154:DIODE 3.71251e-05
10 *11:13 *154:DIODE 0.000141879
11 *11:13 *463:A 5.3304e-05
12 *11:13 *12:9 9.45464e-05
*RES
1 fifo_data_i[2] *12:9 8.9072 
2 *12:9 *154:DIODE 42.785 
3 *12:9 *463:A 39.0979 
*END

*D_NET *13 0.00105466
*CONN
*P fifo_data_i[3] I
*I *137:DIODE I *D sky130_fd_sc_hd__diode_2
*I *447:A I *D sky130_fd_sc_hd__clkbuf_1
*CAP
1 fifo_data_i[3] 0.000280752
2 *137:DIODE 6.35614e-05
3 *447:A 0
4 *13:13 0.000344313
5 *137:DIODE *73:81 7.27182e-05
6 *13:13 *404:CLK 2.49592e-05
7 *13:13 *14:13 9.45464e-05
8 *13:13 *73:81 6.17437e-06
9 *13:13 *73:83 7.64198e-05
10 *12:9 *13:13 9.12112e-05
*RES
1 fifo_data_i[3] *13:13 27.4701 
2 *13:13 *447:A 23 
3 *13:13 *137:DIODE 24.5743 
*END

*D_NET *14 0.00107852
*CONN
*P fifo_data_i[4] I
*I *138:DIODE I *D sky130_fd_sc_hd__diode_2
*I *448:A I *D sky130_fd_sc_hd__clkbuf_1
*CAP
1 fifo_data_i[4] 0.00026333
2 *138:DIODE 7.67877e-05
3 *448:A 0
4 *14:13 0.000340117
5 *138:DIODE *81:6 3.22879e-05
6 *14:13 *404:CLK 0.000180241
7 *14:13 *15:13 9.12112e-05
8 *14:13 *16:13 0
9 *13:13 *14:13 9.45464e-05
*RES
1 fifo_data_i[4] *14:13 26.7274 
2 *14:13 *448:A 23 
3 *14:13 *138:DIODE 24.5743 
*END

*D_NET *15 0.00130556
*CONN
*P fifo_data_i[5] I
*I *139:DIODE I *D sky130_fd_sc_hd__diode_2
*I *449:A I *D sky130_fd_sc_hd__clkbuf_1
*CAP
1 fifo_data_i[5] 0.000266821
2 *139:DIODE 4.94282e-05
3 *449:A 0
4 *15:13 0.000316249
5 *139:DIODE *141:DIODE 0.000143655
6 *139:DIODE *404:CLK 0.000119313
7 *139:DIODE *82:8 4.6595e-05
8 *15:13 *141:DIODE 9.84851e-05
9 *15:13 *404:CLK 8.25941e-05
10 *15:13 *16:13 9.12112e-05
11 *15:13 *83:8 0
12 *14:13 *15:13 9.12112e-05
*RES
1 fifo_data_i[5] *15:13 27.4701 
2 *15:13 *449:A 23 
3 *15:13 *139:DIODE 25.5271 
*END

*D_NET *16 0.00133605
*CONN
*P fifo_data_i[6] I
*I *140:DIODE I *D sky130_fd_sc_hd__diode_2
*I *450:A I *D sky130_fd_sc_hd__clkbuf_1
*CAP
1 fifo_data_i[6] 0.00034305
2 *140:DIODE 6.75759e-05
3 *450:A 2.34823e-05
4 *16:13 0.000434108
5 *140:DIODE *84:14 8.1796e-05
6 *16:13 *141:DIODE 0.000116314
7 *16:13 *451:A 5.50106e-05
8 *16:13 *17:9 9.12112e-05
9 *16:13 *18:13 0
10 *16:13 *45:8 0
11 *16:13 *83:8 0
12 *16:13 *84:14 3.22879e-05
13 *14:13 *16:13 0
14 *15:13 *16:13 9.12112e-05
*RES
1 fifo_data_i[6] *16:13 27.8045 
2 *16:13 *450:A 23.4971 
3 *16:13 *140:DIODE 24.5743 
*END

*D_NET *17 0.0014589
*CONN
*P fifo_data_i[7] I
*I *451:A I *D sky130_fd_sc_hd__clkbuf_1
*I *141:DIODE I *D sky130_fd_sc_hd__diode_2
*CAP
1 fifo_data_i[7] 0.000131785
2 *451:A 6.02196e-05
3 *141:DIODE 0.000211147
4 *17:9 0.000403151
5 *141:DIODE *45:8 0
6 *141:DIODE *82:8 5.67058e-05
7 *17:9 *18:13 9.12112e-05
8 *17:9 *45:8 0
9 *139:DIODE *141:DIODE 0.000143655
10 *15:13 *141:DIODE 9.84851e-05
11 *16:13 *141:DIODE 0.000116314
12 *16:13 *451:A 5.50106e-05
13 *16:13 *17:9 9.12112e-05
*RES
1 fifo_data_i[7] *17:9 9.25935 
2 *17:9 *141:DIODE 42.93 
3 *17:9 *451:A 39.0979 
*END

*D_NET *18 0.0010209
*CONN
*P fifo_data_i[8] I
*I *142:DIODE I *D sky130_fd_sc_hd__diode_2
*I *452:A I *D sky130_fd_sc_hd__clkbuf_1
*CAP
1 fifo_data_i[8] 0.000269985
2 *142:DIODE 0.000126709
3 *452:A 0
4 *18:13 0.000396694
5 *18:13 *19:13 0.000108397
6 *18:13 *74:51 0
7 *18:13 *85:8 2.79004e-05
8 *16:13 *18:13 0
9 *17:9 *18:13 9.12112e-05
*RES
1 fifo_data_i[8] *18:13 26.7274 
2 *18:13 *452:A 23 
3 *18:13 *142:DIODE 25.0507 
*END

*D_NET *19 0.00119125
*CONN
*P fifo_data_i[9] I
*I *143:DIODE I *D sky130_fd_sc_hd__diode_2
*I *453:A I *D sky130_fd_sc_hd__clkbuf_1
*CAP
1 fifo_data_i[9] 0.000292187
2 *143:DIODE 9.05014e-05
3 *453:A 0
4 *19:13 0.000382689
5 *143:DIODE *86:14 5.36617e-05
6 *19:13 *74:51 0
7 *147:DIODE *143:DIODE 0.000141954
8 *147:DIODE *19:13 5.50106e-05
9 *5:9 *19:13 6.68449e-05
10 *6:13 *19:13 0
11 *18:13 *19:13 0.000108397
*RES
1 fifo_data_i[9] *19:13 27.0795 
2 *19:13 *453:A 23 
3 *19:13 *143:DIODE 25.5271 
*END

*D_NET *20 0.0022408
*CONN
*P fifo_empty_i I
*I *144:DIODE I *D sky130_fd_sc_hd__diode_2
*I *454:A I *D sky130_fd_sc_hd__clkbuf_1
*CAP
1 fifo_empty_i 0.0004736
2 *144:DIODE 2.00589e-05
3 *454:A 0
4 *20:15 0.000493659
5 *144:DIODE *118:6 7.42621e-05
6 *20:15 fifo_rd_en_o 8.71738e-05
7 *20:15 *466:A 0
8 *20:15 *107:12 0.000185428
9 *20:15 *107:27 0.0001164
10 *20:15 *118:6 5.67058e-05
11 *152:DIODE *144:DIODE 0.000143655
12 *152:DIODE *20:15 6.67283e-05
13 *461:A *20:15 4.00259e-06
14 *10:17 *20:15 0.000519132
*RES
1 fifo_empty_i *20:15 33.9536 
2 *20:15 *454:A 23 
3 *20:15 *144:DIODE 24.5743 
*END

*D_NET *21 0.00100276
*CONN
*P fifo_rd_en_o O
*I *466:X O *D sky130_fd_sc_hd__buf_4
*CAP
1 fifo_rd_en_o 0.000163586
2 *466:X 0.000222382
3 *21:10 0.000385968
4 *10:17 *21:10 0.000143655
5 *20:15 fifo_rd_en_o 8.71738e-05
*RES
1 *466:X *21:10 42.3604 
2 *21:10 fifo_rd_en_o 8.672 
*END

*D_NET *22 0.00132092
*CONN
*P rst_n I
*I *145:DIODE I *D sky130_fd_sc_hd__diode_2
*I *455:A I *D sky130_fd_sc_hd__clkbuf_1
*CAP
1 rst_n 0.000242515
2 *145:DIODE 9.8872e-05
3 *455:A 0
4 *22:13 0.000341387
5 *145:DIODE *88:10 4.5051e-05
6 *22:13 *73:87 0.000208735
7 *146:DIODE *145:DIODE 0.00014196
8 *146:DIODE *22:13 5.3304e-05
9 *1:9 *22:13 0.000108397
10 *4:9 *22:13 8.06957e-05
11 *11:13 *22:13 0
*RES
1 rst_n *22:13 27.0795 
2 *22:13 *455:A 23 
3 *22:13 *145:DIODE 25.5271 
*END

*D_NET *23 0.000828211
*CONN
*P valid_serial_o O
*I *467:X O *D sky130_fd_sc_hd__buf_4
*CAP
1 valid_serial_o 0.000414105
2 *467:X 0.000414105
*RES
1 *467:X valid_serial_o 48.4788 
*END

*D_NET *26 0.000503937
*CONN
*I *399:D I *D sky130_fd_sc_hd__dfrtp_1
*I *372:X O *D sky130_fd_sc_hd__a22o_1
*CAP
1 *399:D 0
2 *372:X 0.000134225
3 *26:10 0.000134225
4 *26:10 *372:A1 9.84851e-05
5 *26:10 *110:10 2.79064e-05
6 *26:10 *110:24 4.21594e-06
7 *26:10 *128:20 0.00010488
*RES
1 *372:X *26:10 40.6514 
2 *26:10 *399:D 38 
*END

*D_NET *27 0.000842602
*CONN
*I *400:D I *D sky130_fd_sc_hd__dfrtp_1
*I *373:X O *D sky130_fd_sc_hd__a22o_1
*CAP
1 *400:D 3.16967e-05
2 *373:X 0.000367281
3 *27:10 0.000398978
4 *400:D *73:102 2.93747e-05
5 *27:10 *373:B2 5.37348e-06
6 *27:10 *73:87 0
7 *27:10 *73:102 0
8 *27:10 *79:8 9.8971e-06
*RES
1 *373:X *27:10 44.0486 
2 *27:10 *400:D 38.6214 
*END

*D_NET *28 0.000464707
*CONN
*I *401:D I *D sky130_fd_sc_hd__dfrtp_1
*I *375:X O *D sky130_fd_sc_hd__mux2_1
*CAP
1 *401:D 0
2 *375:X 0.000108222
3 *28:10 0.000108222
4 *28:10 *115:23 5.3304e-05
5 *28:10 *127:10 8.4047e-05
6 *1:9 *28:10 0.000110913
*RES
1 *375:X *28:10 40.175 
2 *28:10 *401:D 38 
*END

*D_NET *29 0.000790392
*CONN
*I *402:D I *D sky130_fd_sc_hd__dfrtp_1
*I *377:X O *D sky130_fd_sc_hd__mux2_1
*CAP
1 *402:D 0
2 *377:X 0.000223038
3 *29:10 0.000223038
4 *29:10 *376:B1 0.000228001
5 *29:10 *45:8 0
6 *29:10 *80:8 0.000116314
*RES
1 *377:X *29:10 42.0807 
2 *29:10 *402:D 38 
*END

*D_NET *30 0.00108867
*CONN
*I *403:D I *D sky130_fd_sc_hd__dfrtp_1
*I *379:X O *D sky130_fd_sc_hd__mux2_1
*CAP
1 *403:D 4.00628e-05
2 *379:X 0.000329592
3 *30:10 0.000369655
4 *403:D *73:77 6.17437e-06
5 *403:D *98:63 2.64616e-05
6 *30:10 *374:A1 3.7122e-06
7 *30:10 *405:CLK 6.25829e-05
8 *30:10 *73:71 0.000139647
9 *30:10 *98:63 2.24366e-06
10 *30:10 *104:58 3.15373e-05
11 *1:9 *30:10 7.70038e-05
*RES
1 *379:X *30:10 44.2971 
2 *30:10 *403:D 38.6214 
*END

*D_NET *31 0.000455286
*CONN
*I *404:D I *D sky130_fd_sc_hd__dfrtp_1
*I *381:X O *D sky130_fd_sc_hd__mux2_1
*CAP
1 *404:D 0
2 *381:X 0.000177553
3 *31:10 0.000177553
4 *31:10 *380:B1 0
5 *31:10 *45:8 0
6 *31:10 *81:6 0.00010018
*RES
1 *381:X *31:10 41.0036 
2 *31:10 *404:D 38 
*END

*D_NET *32 0.000630298
*CONN
*I *405:D I *D sky130_fd_sc_hd__dfrtp_1
*I *383:X O *D sky130_fd_sc_hd__mux2_1
*CAP
1 *405:D 3.45225e-05
2 *383:X 0.000154273
3 *32:10 0.000188795
4 *405:D *405:CLK 6.17437e-06
5 *405:D *405:RESET_B 2.93747e-05
6 *32:10 *405:CLK 8.62783e-05
7 *32:10 *81:6 0.000102389
8 *1:9 *32:10 2.84912e-05
*RES
1 *383:X *32:10 41.0036 
2 *32:10 *405:D 38.6214 
*END

*D_NET *33 0.000761816
*CONN
*I *406:D I *D sky130_fd_sc_hd__dfrtp_1
*I *385:X O *D sky130_fd_sc_hd__mux2_1
*CAP
1 *406:D 0
2 *385:X 0.000305108
3 *33:10 0.000305108
4 *33:10 *45:8 0
5 *33:10 *84:14 0.000151601
*RES
1 *385:X *33:10 42.9093 
2 *33:10 *406:D 38 
*END

*D_NET *34 0.000703418
*CONN
*I *407:D I *D sky130_fd_sc_hd__dfrtp_1
*I *387:X O *D sky130_fd_sc_hd__mux2_1
*CAP
1 *407:D 0
2 *387:X 0.000256874
3 *34:10 0.000256874
4 *34:10 *85:16 0.000189669
5 *34:10 *111:63 0
*RES
1 *387:X *34:10 41.6043 
2 *34:10 *407:D 38 
*END

*D_NET *35 0.000825812
*CONN
*I *408:D I *D sky130_fd_sc_hd__dfrtp_1
*I *389:X O *D sky130_fd_sc_hd__mux2_1
*CAP
1 *408:D 0
2 *389:X 0.000227378
3 *35:10 0.000227378
4 *35:10 *45:8 0.000110922
5 *35:10 *74:51 3.21327e-05
6 *35:10 *86:14 0.000228001
*RES
1 *389:X *35:10 42.0807 
2 *35:10 *408:D 38 
*END

*D_NET *36 0.000517155
*CONN
*I *409:D I *D sky130_fd_sc_hd__dfrtp_1
*I *391:X O *D sky130_fd_sc_hd__mux2_1
*CAP
1 *409:D 4.24639e-05
2 *391:X 0.000131944
3 *36:10 0.000174407
4 *409:D *409:CLK 2.64616e-05
5 *36:10 *74:16 0.000141879
6 *36:10 *115:36 0
*RES
1 *391:X *36:10 40.5271 
2 *36:10 *409:D 38.6214 
*END

*D_NET *37 0.000556582
*CONN
*I *410:D I *D sky130_fd_sc_hd__dfrtp_1
*I *393:X O *D sky130_fd_sc_hd__mux2_1
*CAP
1 *410:D 0
2 *393:X 0.000191304
3 *37:10 0.000191304
4 *37:10 *410:RESET_B 5.93381e-05
5 *37:10 *74:155 1.44546e-05
6 *37:10 *107:27 0
7 *37:10 *117:8 0.00010018
*RES
1 *393:X *37:10 41.7079 
2 *37:10 *410:D 38 
*END

*D_NET *38 0.000660917
*CONN
*I *411:D I *D sky130_fd_sc_hd__dfrtp_1
*I *395:X O *D sky130_fd_sc_hd__mux2_1
*CAP
1 *411:D 0.000188997
2 *395:X 8.7819e-05
3 *38:8 0.000276816
4 *411:D *47:10 7.53384e-06
5 *411:D *74:126 2.93747e-05
6 *38:8 *74:126 0
7 *38:8 *105:8 0
8 *38:8 *115:51 7.03766e-05
*RES
1 *395:X *38:8 39.9057 
2 *38:8 *411:D 41.48 
*END

*D_NET *39 0.000713057
*CONN
*I *412:D I *D sky130_fd_sc_hd__dfrtp_1
*I *397:X O *D sky130_fd_sc_hd__mux2_1
*CAP
1 *412:D 0.000170786
2 *397:X 0.000116419
3 *39:10 0.000287205
4 *412:D *74:140 6.21002e-05
5 *39:10 *47:10 5.79559e-05
6 *39:10 *74:140 1.85903e-05
*RES
1 *397:X *39:10 39.8229 
2 *39:10 *412:D 40.5479 
*END

*D_NET *40 0.000998075
*CONN
*I *393:A1 I *D sky130_fd_sc_hd__mux2_1
*I *392:X O *D sky130_fd_sc_hd__a32o_1
*CAP
1 *393:A1 0
2 *392:X 0.000161497
3 *40:10 0.000161497
4 *40:10 *392:A3 9.84794e-05
5 *40:10 *427:A 7.12732e-05
6 *40:10 *100:53 3.44273e-05
7 *40:10 *112:20 0.000308033
8 *40:10 *135:24 0.000162868
*RES
1 *392:X *40:10 43.0336 
2 *40:10 *393:A1 38 
*END

*D_NET *41 0.00104286
*CONN
*I *395:A1 I *D sky130_fd_sc_hd__mux2_1
*I *394:X O *D sky130_fd_sc_hd__a32o_1
*CAP
1 *395:A1 0
2 *394:X 0.000286364
3 *41:10 0.000286364
4 *41:10 *74:87 0.000358425
5 *41:10 *104:22 8.62876e-05
6 *41:10 *115:51 2.5415e-05
*RES
1 *394:X *41:10 43.1579 
2 *41:10 *395:A1 38 
*END

*D_NET *42 0.000675527
*CONN
*I *397:A1 I *D sky130_fd_sc_hd__mux2_1
*I *396:X O *D sky130_fd_sc_hd__a32o_1
*CAP
1 *397:A1 4.60947e-05
2 *396:X 0.000132275
3 *42:8 0.000178369
4 *397:A1 *397:S 0.000182832
5 *397:A1 *46:20 7.13587e-05
6 *397:A1 *74:140 5.50106e-05
7 *42:8 *74:140 9.5876e-06
*RES
1 *396:X *42:8 39.9057 
2 *42:8 *397:A1 40.0507 
*END

*D_NET *43 0.00387646
*CONN
*I *440:A I *D sky130_fd_sc_hd__clkbuf_2
*I *439:A I *D sky130_fd_sc_hd__dlymetal6s2s_1
*I *353:Y O *D sky130_fd_sc_hd__inv_2
*CAP
1 *440:A 0
2 *439:A 0
3 *353:Y 6.03809e-05
4 *43:22 0.000564326
5 *43:14 0.000882092
6 *43:6 0.000378148
7 *43:6 *97:19 0.000144494
8 *43:6 *109:25 1.21972e-05
9 *43:6 *112:20 9.9002e-05
10 *43:14 *396:A3 3.43144e-05
11 *43:14 *72:23 0.000238185
12 *43:14 *95:18 0.000175903
13 *43:14 *97:29 0.00013449
14 *43:14 *106:31 0
15 *43:14 *135:8 6.9805e-05
16 *43:22 *386:A1 0.000437226
17 *43:22 *386:B2 0.000200432
18 *43:22 *394:B2 0.000107548
19 *43:22 *418:CLK 0
20 *43:22 *66:10 0
21 *43:22 *95:20 6.38947e-05
22 *43:22 *95:22 0.000129686
23 *43:22 *108:36 0.000103647
24 *43:22 *133:8 4.06849e-05
*RES
1 *353:Y *43:6 25.0507 
2 *43:6 *43:14 36.7943 
3 *43:14 *43:22 45.9293 
4 *43:22 *439:A 23 
5 *43:6 *440:A 23 
*END

*D_NET *44 0.00105427
*CONN
*I *364:A1 I *D sky130_fd_sc_hd__a31o_1
*I *354:Y O *D sky130_fd_sc_hd__inv_2
*CAP
1 *364:A1 0
2 *354:Y 0.000180428
3 *44:6 0.000180428
4 *44:6 *99:8 0.000355822
5 *44:6 *104:42 0.000227208
6 *44:6 *104:58 2.02872e-05
7 *44:6 *113:33 9.00923e-05
*RES
1 *354:Y *44:6 28.8621 
2 *44:6 *364:A1 23 
*END

*D_NET *45 0.0054509
*CONN
*I *372:A2 I *D sky130_fd_sc_hd__a22o_1
*I *373:A2 I *D sky130_fd_sc_hd__a22o_1
*I *355:Y O *D sky130_fd_sc_hd__nor2_1
*CAP
1 *372:A2 0.000318901
2 *373:A2 6.80542e-05
3 *355:Y 0
4 *45:8 0.00231813
5 *45:6 0.00193117
6 *372:A2 *372:A1 1.72965e-05
7 *372:A2 *373:B1 2.84486e-05
8 *372:A2 *79:8 0.000228909
9 *372:A2 *104:72 8.96016e-05
10 *373:A2 *73:87 0
11 *373:A2 *119:8 2.96154e-05
12 *45:8 *377:A0 0
13 *45:8 *380:A1 0
14 *45:8 *380:B1 0
15 *45:8 *404:CLK 0
16 *45:8 *46:8 0
17 *45:8 *59:10 0
18 *45:8 *73:83 0
19 *45:8 *73:87 0
20 *45:8 *74:51 0
21 *45:8 *80:8 0
22 *45:8 *83:8 0.000196945
23 *45:8 *92:31 0
24 *45:8 *100:71 0
25 *45:8 *104:72 0
26 *45:8 *106:49 0
27 *45:8 *107:47 0
28 *45:8 *112:8 0
29 *45:8 *116:10 7.56417e-05
30 *45:8 *119:8 3.72639e-05
31 *141:DIODE *45:8 0
32 *6:13 *45:8 0
33 *7:13 *45:8 0
34 *16:13 *45:8 0
35 *17:9 *45:8 0
36 *29:10 *45:8 0
37 *31:10 *45:8 0
38 *33:10 *45:8 0
39 *35:10 *45:8 0.000110922
*RES
1 *355:Y *45:6 38 
2 *45:6 *45:8 35.0071 
3 *45:8 *373:A2 39.2014 
4 *45:8 *372:A2 43.6343 
*END

*D_NET *46 0.0081813
*CONN
*I *438:A I *D sky130_fd_sc_hd__clkbuf_2
*I *395:S I *D sky130_fd_sc_hd__mux2_1
*I *391:S I *D sky130_fd_sc_hd__mux2_1
*I *356:X O *D sky130_fd_sc_hd__or2_1
*CAP
1 *438:A 0.000355261
2 *395:S 0.000221668
3 *391:S 0.00049146
4 *356:X 6.19642e-05
5 *46:24 0.000800567
6 *46:20 0.00117252
7 *46:8 0.00150231
8 *391:S *386:B2 0.000191157
9 *391:S *391:A0 5.45627e-05
10 *391:S *394:A1 0
11 *391:S *394:B2 0.000422876
12 *391:S *62:10 0.000138718
13 *391:S *102:22 0
14 *391:S *105:8 0.000110935
15 *391:S *105:22 7.57281e-06
16 *391:S *126:25 0
17 *395:S *370:A2 4.34745e-05
18 *395:S *370:B1 0.000350569
19 *395:S *395:A0 0.00010018
20 *395:S *100:18 0.000528019
21 *438:A *466:A 0
22 *438:A *92:12 0
23 *438:A *92:31 3.0647e-05
24 *438:A *107:12 8.72173e-05
25 *438:A *107:27 0
26 *438:A *115:67 4.26957e-05
27 *46:8 *92:31 4.08537e-05
28 *46:20 *397:S 0.000156601
29 *46:20 *410:RESET_B 5.03399e-05
30 *46:20 *47:10 0.000290592
31 *46:20 *51:10 0.000243247
32 *46:20 *74:140 0.000354116
33 *46:20 *92:25 5.12254e-05
34 *46:20 *124:10 5.40337e-05
35 *46:20 *135:46 8.66591e-05
36 *46:24 *105:8 6.79006e-05
37 *46:24 *126:25 0
38 *397:A1 *46:20 7.13587e-05
39 *45:8 *46:8 0
*RES
1 *356:X *46:8 39.2014 
2 *46:8 *46:20 36.6671 
3 *46:20 *46:24 16.9057 
4 *46:24 *391:S 49.4136 
5 *46:24 *395:S 46.2443 
6 *46:8 *438:A 44.8357 
*END

*D_NET *47 0.0053533
*CONN
*I *435:A I *D sky130_fd_sc_hd__clkbuf_2
*I *436:A I *D sky130_fd_sc_hd__buf_1
*I *358:X O *D sky130_fd_sc_hd__and2b_1
*CAP
1 *435:A 0.000358568
2 *436:A 0
3 *358:X 0.0011403
4 *47:16 0.000458845
5 *47:10 0.00124058
6 *435:A *100:10 5.50106e-05
7 *435:A *103:42 0.000143655
8 *435:A *115:51 0.000401106
9 *47:10 *397:A0 0.000137651
10 *47:10 *397:S 0.00037065
11 *47:10 *410:RESET_B 9.23486e-05
12 *47:10 *74:126 3.06213e-05
13 *47:10 *74:140 0.000116245
14 *47:10 *126:12 0.000259945
15 *47:10 *135:46 0.00010655
16 *47:16 *105:8 8.51432e-05
17 *47:16 *115:51 0
18 *411:D *47:10 7.53384e-06
19 *39:10 *47:10 5.79559e-05
20 *46:20 *47:10 0.000290592
*RES
1 *358:X *47:10 44.75 
2 *47:10 *47:16 32.2579 
3 *47:16 *436:A 23 
4 *47:16 *435:A 31.7207 
*END

*D_NET *48 0.00273498
*CONN
*I *367:A_N I *D sky130_fd_sc_hd__and3b_1
*I *360:B I *D sky130_fd_sc_hd__and2b_1
*I *366:A2 I *D sky130_fd_sc_hd__o31a_1
*I *359:Y O *D sky130_fd_sc_hd__nor2_1
*CAP
1 *367:A_N 0
2 *360:B 7.7692e-05
3 *366:A2 0.000105796
4 *359:Y 0
5 *48:36 0.000251655
6 *48:19 0.000466322
7 *48:4 0.000242771
8 *360:B *360:A_N 0.000178517
9 *360:B *368:A2 2.98648e-05