*SPEF "ieee 1481-1999"
*DESIGN "acsu"
*DATE "02:58:29 Saturday January 24, 2026"
*VENDOR "The OpenROAD Project"
*PROGRAM "OpenROAD"
*VERSION "edf00dff99f6c40d67a30c0e22a8191c5d2ed9d6"
*DESIGN_FLOW "NAME_SCOPE LOCAL" "PIN_CAP NONE"
*DIVIDER /
*DELIMITER :
*BUS_DELIMITER []
*T_UNIT 1 NS
*C_UNIT 1 PF
*R_UNIT 1 OHM
*L_UNIT 1 HENRY

*NAME_MAP
*1 bm_s0_s0_i[0]
*2 bm_s0_s0_i[1]
*3 bm_s0_s2_i[0]
*4 bm_s0_s2_i[1]
*5 bm_s1_s0_i[0]
*6 bm_s1_s0_i[1]
*7 bm_s1_s2_i[0]
*8 bm_s1_s2_i[1]
*9 bm_s2_s1_i[0]
*10 bm_s2_s1_i[1]
*11 bm_s2_s3_i[0]
*12 bm_s2_s3_i[1]
*13 bm_s3_s1_i[0]
*14 bm_s3_s1_i[1]
*15 bm_s3_s3_i[0]
*16 bm_s3_s3_i[1]
*17 dec_bits_o[0]
*18 dec_bits_o[1]
*19 dec_bits_o[2]
*20 dec_bits_o[3]
*21 pm_s0_i[0]
*22 pm_s0_i[1]
*23 pm_s0_i[2]
*24 pm_s0_i[3]
*25 pm_s0_i[4]
*26 pm_s0_i[5]
*27 pm_s0_i[6]
*28 pm_s0_i[7]
*29 pm_s0_o[0]
*30 pm_s0_o[1]
*31 pm_s0_o[2]
*32 pm_s0_o[3]
*33 pm_s0_o[4]
*34 pm_s0_o[5]
*35 pm_s0_o[6]
*36 pm_s0_o[7]
*37 pm_s1_i[0]
*38 pm_s1_i[1]
*39 pm_s1_i[2]
*40 pm_s1_i[3]
*41 pm_s1_i[4]
*42 pm_s1_i[5]
*43 pm_s1_i[6]
*44 pm_s1_i[7]
*45 pm_s1_o[0]
*46 pm_s1_o[1]
*47 pm_s1_o[2]
*48 pm_s1_o[3]
*49 pm_s1_o[4]
*50 pm_s1_o[5]
*51 pm_s1_o[6]
*52 pm_s1_o[7]
*53 pm_s2_i[0]
*54 pm_s2_i[1]
*55 pm_s2_i[2]
*56 pm_s2_i[3]
*57 pm_s2_i[4]
*58 pm_s2_i[5]
*59 pm_s2_i[6]
*60 pm_s2_i[7]
*61 pm_s2_o[0]
*62 pm_s2_o[1]
*63 pm_s2_o[2]
*64 pm_s2_o[3]
*65 pm_s2_o[4]
*66 pm_s2_o[5]
*67 pm_s2_o[6]
*68 pm_s2_o[7]
*69 pm_s3_i[0]
*70 pm_s3_i[1]
*71 pm_s3_i[2]
*72 pm_s3_i[3]
*73 pm_s3_i[4]
*74 pm_s3_i[5]
*75 pm_s3_i[6]
*76 pm_s3_i[7]
*77 pm_s3_o[0]
*78 pm_s3_o[1]
*79 pm_s3_o[2]
*80 pm_s3_o[3]
*81 pm_s3_o[4]
*82 pm_s3_o[5]
*83 pm_s3_o[6]
*84 pm_s3_o[7]
*87 _000_
*88 _001_
*89 _002_
*90 _003_
*91 _004_
*92 _005_
*93 _006_
*94 _007_
*95 _008_
*96 _009_
*97 _010_
*98 _011_
*99 _012_
*100 _013_
*101 _014_
*102 _015_
*103 _016_
*104 _017_
*105 _018_
*106 _019_
*107 _020_
*108 _021_
*109 _022_
*110 _023_
*111 _024_
*112 _025_
*113 _026_
*114 _027_
*115 _028_
*116 _029_
*117 _030_
*118 _031_
*119 _032_
*120 _033_
*121 _034_
*122 _035_
*123 _036_
*124 _037_
*125 _038_
*126 _039_
*127 _040_
*128 _041_
*129 _042_
*130 _043_
*131 _044_
*132 _045_
*133 _046_
*134 _047_
*135 _048_
*136 _049_
*137 _050_
*138 _051_
*139 _052_
*140 _053_
*141 _054_
*142 _055_
*143 _056_
*144 _057_
*145 _058_
*146 _059_
*147 _060_
*148 _061_
*149 _062_
*150 _063_
*151 _064_
*152 _065_
*153 _066_
*154 _067_
*155 _068_
*156 _069_
*157 _070_
*158 _071_
*159 _072_
*160 _073_
*161 _074_
*162 _075_
*163 _076_
*164 _077_
*165 _078_
*166 _079_
*167 _080_
*168 _081_
*169 _082_
*170 _083_
*171 _084_
*172 _085_
*173 _086_
*174 _087_
*175 _088_
*176 _089_
*177 _090_
*178 _091_
*179 _092_
*180 _093_
*181 _094_
*182 _095_
*183 _096_
*184 _097_
*185 _098_
*186 _099_
*187 _100_
*188 _101_
*189 _102_
*190 _103_
*191 _104_
*192 _105_
*193 _106_
*194 _107_
*195 _108_
*196 _109_
*197 _110_
*198 _111_
*199 _112_
*200 _113_
*201 _114_
*202 _115_
*203 _116_
*204 _117_
*205 _118_
*206 _119_
*207 _120_
*208 _121_
*209 _122_
*210 _123_
*211 _124_
*212 _125_
*213 _126_
*214 _127_
*215 _128_
*216 _129_
*217 _130_
*218 _131_
*219 _132_
*220 _133_
*221 _134_
*222 _135_
*223 _136_
*224 _137_
*225 _138_
*226 _139_
*227 _140_
*228 _141_
*229 _142_
*230 _143_
*231 _144_
*232 _145_
*233 _146_
*234 _147_
*235 _148_
*236 _149_
*237 _150_
*238 _151_
*239 _152_
*240 _153_
*241 _154_
*242 _155_
*243 _156_
*244 _157_
*245 _158_
*246 _159_
*247 _160_
*248 _161_
*249 _162_
*250 _163_
*251 _164_
*252 _165_
*253 _166_
*254 _167_
*255 _168_
*256 _169_
*257 _170_
*258 _171_
*259 _172_
*260 _173_
*261 _174_
*262 _175_
*263 _176_
*264 _177_
*265 _178_
*266 _179_
*267 _180_
*268 _181_
*269 _182_
*270 _183_
*271 _184_
*272 _185_
*273 _186_
*274 _187_
*275 _188_
*276 _189_
*277 _190_
*278 _191_
*279 _192_
*280 _193_
*281 _194_
*282 _195_
*283 _196_
*284 _197_
*285 _198_
*286 _199_
*287 _200_
*288 _201_
*289 _202_
*290 _203_
*291 _204_
*292 _205_
*293 _206_
*294 _207_
*295 _208_
*296 _209_
*297 _210_
*298 _211_
*299 _212_
*300 _213_
*301 _214_
*302 _215_
*303 _216_
*304 _217_
*305 _218_
*306 _219_
*307 _220_
*308 _221_
*309 _222_
*310 _223_
*311 _224_
*312 _225_
*313 _226_
*314 net1
*315 net10
*316 net100
*317 net101
*318 net102
*319 net103
*320 net104
*321 net105
*322 net106
*323 net107
*324 net108
*325 net109
*326 net11
*327 net110
*328 net111
*329 net12
*330 net13
*331 net14
*332 net15
*333 net16
*334 net17
*335 net18
*336 net19
*337 net2
*338 net20
*339 net21
*340 net22
*341 net23
*342 net24
*343 net25
*344 net26
*345 net27
*346 net28
*347 net29
*348 net3
*349 net30
*350 net31
*351 net32
*352 net33
*353 net34
*354 net35
*355 net36
*356 net37
*357 net38
*358 net39
*359 net4
*360 net40
*361 net41
*362 net42
*363 net43
*364 net44
*365 net45
*366 net46
*367 net47
*368 net48
*369 net49
*370 net5
*371 net50
*372 net51
*373 net52
*374 net53
*375 net54
*376 net55
*377 net56
*378 net57
*379 net58
*380 net59
*381 net6
*382 net60
*383 net61
*384 net62
*385 net63
*386 net64
*387 net65
*388 net66
*389 net67
*390 net68
*391 net69
*392 net7
*393 net70
*394 net71
*395 net72
*396 net73
*397 net74
*398 net75
*399 net76
*400 net77
*401 net78
*402 net79
*403 net8
*404 net80
*405 net81
*406 net82
*407 net83
*408 net84
*409 net85
*410 net86
*411 net87
*412 net88
*413 net89
*414 net9
*415 net90
*416 net91
*417 net92
*418 net93
*419 net94
*420 net95
*421 net96
*422 net97
*423 net98
*424 net99
*425 ANTENNA__304__A1
*426 ANTENNA__488__S
*427 ANTENNA_fanout111_A
*428 ANTENNA_fanout85_A
*429 ANTENNA_fanout86_X
*430 ANTENNA_input10_A
*431 ANTENNA_input11_A
*432 ANTENNA_input12_A
*433 ANTENNA_input13_A
*434 ANTENNA_input14_A
*435 ANTENNA_input15_A
*436 ANTENNA_input16_A
*437 ANTENNA_input17_A
*438 ANTENNA_input17_X
*439 ANTENNA_input18_A
*440 ANTENNA_input19_A
*441 ANTENNA_input1_A
*442 ANTENNA_input20_A
*443 ANTENNA_input21_A
*444 ANTENNA_input22_A
*445 ANTENNA_input23_A
*446 ANTENNA_input24_A
*447 ANTENNA_input25_A
*448 ANTENNA_input26_A
*449 ANTENNA_input27_A
*450 ANTENNA_input28_A
*451 ANTENNA_input29_A
*452 ANTENNA_input2_A
*453 ANTENNA_input30_A
*454 ANTENNA_input31_A
*455 ANTENNA_input32_A
*456 ANTENNA_input33_A
*457 ANTENNA_input34_A
*458 ANTENNA_input35_A
*459 ANTENNA_input36_A
*460 ANTENNA_input37_A
*461 ANTENNA_input38_A
*462 ANTENNA_input39_A
*463 ANTENNA_input3_A
*464 ANTENNA_input40_A
*465 ANTENNA_input41_A
*466 ANTENNA_input42_A
*467 ANTENNA_input43_A
*468 ANTENNA_input44_A
*469 ANTENNA_input45_A
*470 ANTENNA_input46_A
*471 ANTENNA_input47_A
*472 ANTENNA_input48_A
*473 ANTENNA_input4_A
*474 ANTENNA_input5_A
*475 ANTENNA_input6_A
*476 ANTENNA_input7_A
*477 ANTENNA_input8_A
*478 ANTENNA_input9_A
*479 ANTENNA_output49_A
*480 FILLER_0_137
*481 FILLER_0_165
*482 FILLER_0_187
*483 FILLER_0_57
*484 FILLER_0_85
*485 FILLER_10_109
*486 FILLER_10_121
*487 FILLER_10_13
*488 FILLER_10_133
*489 FILLER_10_139
*490 FILLER_10_141
*491 FILLER_10_153
*492 FILLER_10_165
*493 FILLER_10_177
*494 FILLER_10_183
*495 FILLER_10_27
*496 FILLER_10_29
*497 FILLER_10_40
*498 FILLER_10_52
*499 FILLER_10_82
*500 FILLER_10_85
*501 FILLER_10_97
*502 FILLER_11_100
*503 FILLER_11_113
*504 FILLER_11_130
*505 FILLER_11_142
*506 FILLER_11_154
*507 FILLER_11_16
*508 FILLER_11_166
*509 FILLER_11_169
*510 FILLER_11_181
*511 FILLER_11_189
*512 FILLER_11_28
*513 FILLER_11_36
*514 FILLER_11_55
*515 FILLER_11_63
*516 FILLER_11_69
*517 FILLER_11_73
*518 FILLER_11_85
*519 FILLER_11_95
*520 FILLER_12_10
*521 FILLER_12_100
*522 FILLER_12_109
*523 FILLER_12_126
*524 FILLER_12_141
*525 FILLER_12_153
*526 FILLER_12_165
*527 FILLER_12_177
*528 FILLER_12_189
*529 FILLER_12_22
*530 FILLER_12_40
*531 FILLER_12_45
*532 FILLER_12_61
*533 FILLER_12_69
*534 FILLER_12_79
*535 FILLER_12_83
*536 FILLER_12_85
*537 FILLER_13_103
*538 FILLER_13_111
*539 FILLER_13_113
*540 FILLER_13_119
*541 FILLER_13_124
*542 FILLER_13_136
*543 FILLER_13_148
*544 FILLER_13_160
*545 FILLER_13_182
*546 FILLER_13_26
*547 FILLER_13_3
*548 FILLER_13_64
*549 FILLER_13_72
*550 FILLER_13_79
*551 FILLER_13_91
*552 FILLER_14_102
*553 FILLER_14_114
*554 FILLER_14_122
*555 FILLER_14_130
*556 FILLER_14_138
*557 FILLER_14_174
*558 FILLER_14_188
*559 FILLER_14_20
*560 FILLER_14_29
*561 FILLER_14_35
*562 FILLER_14_48
*563 FILLER_14_52
*564 FILLER_14_55
*565 FILLER_14_69
*566 FILLER_14_8
*567 FILLER_14_90
*568 FILLER_15_109
*569 FILLER_15_134
*570 FILLER_15_145
*571 FILLER_15_157
*572 FILLER_15_165
*573 FILLER_15_176
*574 FILLER_15_182
*575 FILLER_15_187
*576 FILLER_15_20
*577 FILLER_15_32
*578 FILLER_15_40
*579 FILLER_15_50
*580 FILLER_15_57
*581 FILLER_15_69
*582 FILLER_15_77
*583 FILLER_15_8
*584 FILLER_15_84
*585 FILLER_15_96
*586 FILLER_16_104
*587 FILLER_16_116
*588 FILLER_16_128
*589 FILLER_16_138
*590 FILLER_16_141
*591 FILLER_16_15
*592 FILLER_16_156
*593 FILLER_16_168
*594 FILLER_16_176
*595 FILLER_16_188
*596 FILLER_16_27
*597 FILLER_16_29
*598 FILLER_16_3
*599 FILLER_16_41
*600 FILLER_16_53
*601 FILLER_16_61
*602 FILLER_16_71
*603 FILLER_16_83
*604 FILLER_16_92
*605 FILLER_17_105
*606 FILLER_17_111
*607 FILLER_17_113
*608 FILLER_17_125
*609 FILLER_17_137
*610 FILLER_17_167
*611 FILLER_17_187
*612 FILLER_17_20
*613 FILLER_17_38
*614 FILLER_17_50
*615 FILLER_17_64
*616 FILLER_17_8
*617 FILLER_17_85
*618 FILLER_18_105
*619 FILLER_18_118
*620 FILLER_18_136
*621 FILLER_18_141
*622 FILLER_18_15
*623 FILLER_18_153
*624 FILLER_18_165
*625 FILLER_18_173
*626 FILLER_18_185
*627 FILLER_18_189
*628 FILLER_18_27
*629 FILLER_18_29
*630 FILLER_18_3
*631 FILLER_18_47
*632 FILLER_18_67
*633 FILLER_18_93
*634 FILLER_19_111
*635 FILLER_19_113
*636 FILLER_19_125
*637 FILLER_19_137
*638 FILLER_19_149
*639 FILLER_19_164
*640 FILLER_19_169
*641 FILLER_19_181
*642 FILLER_19_20
*643 FILLER_19_32
*644 FILLER_19_44
*645 FILLER_19_52
*646 FILLER_19_57
*647 FILLER_19_69
*648 FILLER_19_73
*649 FILLER_19_8
*650 FILLER_19_89
*651 FILLER_1_111
*652 FILLER_1_140
*653 FILLER_1_152
*654 FILLER_1_164
*655 FILLER_1_169
*656 FILLER_1_177
*657 FILLER_1_26
*658 FILLER_1_3
*659 FILLER_1_39
*660 FILLER_1_50
*661 FILLER_1_57
*662 FILLER_1_64
*663 FILLER_1_73
*664 FILLER_1_85
*665 FILLER_20_109
*666 FILLER_20_121
*667 FILLER_20_125
*668 FILLER_20_15
*669 FILLER_20_150
*670 FILLER_20_160
*671 FILLER_20_169
*672 FILLER_20_187
*673 FILLER_20_27
*674 FILLER_20_3
*675 FILLER_20_36
*676 FILLER_20_44
*677 FILLER_20_53
*678 FILLER_20_59
*679 FILLER_20_71
*680 FILLER_20_83
*681 FILLER_20_85
*682 FILLER_20_97
*683 FILLER_21_140
*684 FILLER_21_154
*685 FILLER_21_178
*686 FILLER_21_20
*687 FILLER_21_32
*688 FILLER_21_36
*689 FILLER_21_52
*690 FILLER_21_57
*691 FILLER_21_72
*692 FILLER_21_76
*693 FILLER_21_8
*694 FILLER_21_85
*695 FILLER_21_91
*696 FILLER_21_97
*697 FILLER_22_102
*698 FILLER_22_113
*699 FILLER_22_119
*700 FILLER_22_137
*701 FILLER_22_141
*702 FILLER_22_147
*703 FILLER_22_15
*704 FILLER_22_159
*705 FILLER_22_165
*706 FILLER_22_169
*707 FILLER_22_181
*708 FILLER_22_189
*709 FILLER_22_27
*710 FILLER_22_29
*711 FILLER_22_3
*712 FILLER_22_38
*713 FILLER_22_50
*714 FILLER_22_56
*715 FILLER_22_64
*716 FILLER_22_76
*717 FILLER_22_80
*718 FILLER_23_100
*719 FILLER_23_113
*720 FILLER_23_121
*721 FILLER_23_126
*722 FILLER_23_137
*723 FILLER_23_149
*724 FILLER_23_153
*725 FILLER_23_161
*726 FILLER_23_167
*727 FILLER_23_169
*728 FILLER_23_181
*729 FILLER_23_189
*730 FILLER_23_20
*731 FILLER_23_32
*732 FILLER_23_39
*733 FILLER_23_47
*734 FILLER_23_55
*735 FILLER_23_57
*736 FILLER_23_69
*737 FILLER_23_73
*738 FILLER_23_8
*739 FILLER_23_88
*740 FILLER_24_102
*741 FILLER_24_111
*742 FILLER_24_123
*743 FILLER_24_129
*744 FILLER_24_139
*745 FILLER_24_148
*746 FILLER_24_15
*747 FILLER_24_164
*748 FILLER_24_175
*749 FILLER_24_187
*750 FILLER_24_27
*751 FILLER_24_29
*752 FILLER_24_3
*753 FILLER_24_37
*754 FILLER_24_53
*755 FILLER_24_57
*756 FILLER_24_65
*757 FILLER_24_85
*758 FILLER_24_89
*759 FILLER_24_98
*760 FILLER_25_10
*761 FILLER_25_111
*762 FILLER_25_113
*763 FILLER_25_131
*764 FILLER_25_134
*765 FILLER_25_142
*766 FILLER_25_150
*767 FILLER_25_155
*768 FILLER_25_161
*769 FILLER_25_167
*770 FILLER_25_169
*771 FILLER_25_175
*772 FILLER_25_180
*773 FILLER_25_187
*774 FILLER_25_22
*775 FILLER_25_30
*776 FILLER_25_47
*777 FILLER_25_52
*778 FILLER_25_57
*779 FILLER_25_68
*780 FILLER_25_76
*781 FILLER_25_92
*782 FILLER_25_96
*783 FILLER_26_105
*784 FILLER_26_14
*785 FILLER_26_26
*786 FILLER_26_29
*787 FILLER_26_34
*788 FILLER_26_40
*789 FILLER_26_44
*790 FILLER_26_73
*791 FILLER_26_85
*792 FILLER_26_99
*793 FILLER_27_104
*794 FILLER_27_123
*795 FILLER_27_141
*796 FILLER_27_19
*797 FILLER_27_25
*798 FILLER_27_3
*799 FILLER_27_33
*800 FILLER_27_43
*801 FILLER_27_49
*802 FILLER_27_57
*803 FILLER_27_73
*804 FILLER_27_91
*805 FILLER_27_97
*806 FILLER_2_103
*807 FILLER_2_115
*808 FILLER_2_124
*809 FILLER_2_136
*810 FILLER_2_141
*811 FILLER_2_153
*812 FILLER_2_165
*813 FILLER_2_177
*814 FILLER_2_20
*815 FILLER_2_43
*816 FILLER_2_55
*817 FILLER_2_67
*818 FILLER_2_73
*819 FILLER_3_10
*820 FILLER_3_100
*821 FILLER_3_113
*822 FILLER_3_121
*823 FILLER_3_126
*824 FILLER_3_138
*825 FILLER_3_150
*826 FILLER_3_16
*827 FILLER_3_162
*828 FILLER_3_169
*829 FILLER_3_181
*830 FILLER_3_184
*831 FILLER_3_28
*832 FILLER_3_3
*833 FILLER_3_51
*834 FILLER_3_55
*835 FILLER_3_64
*836 FILLER_3_76
*837 FILLER_3_88
*838 FILLER_4_113
*839 FILLER_4_121
*840 FILLER_4_132
*841 FILLER_4_154
*842 FILLER_4_166
*843 FILLER_4_178
*844 FILLER_4_22
*845 FILLER_4_29
*846 FILLER_4_3
*847 FILLER_4_41
*848 FILLER_4_53
*849 FILLER_4_57
*850 FILLER_4_65
*851 FILLER_4_73
*852 FILLER_4_83
*853 FILLER_4_85
*854 FILLER_4_97
*855 FILLER_5_101
*856 FILLER_5_113
*857 FILLER_5_121
*858 FILLER_5_136
*859 FILLER_5_143
*860 FILLER_5_155
*861 FILLER_5_167
*862 FILLER_5_169
*863 FILLER_5_181
*864 FILLER_5_189
*865 FILLER_5_20
*866 FILLER_5_24
*867 FILLER_5_32
*868 FILLER_5_43
*869 FILLER_5_49
*870 FILLER_5_55
*871 FILLER_5_60
*872 FILLER_5_66
*873 FILLER_5_77
*874 FILLER_5_8
*875 FILLER_5_85
*876 FILLER_5_93
*877 FILLER_6_109
*878 FILLER_6_121
*879 FILLER_6_131
*880 FILLER_6_139
*881 FILLER_6_141
*882 FILLER_6_153
*883 FILLER_6_165
*884 FILLER_6_177
*885 FILLER_6_189
*886 FILLER_6_21
*887 FILLER_6_27
*888 FILLER_6_29
*889 FILLER_6_48
*890 FILLER_6_5
*891 FILLER_6_74
*892 FILLER_6_82
*893 FILLER_6_85
*894 FILLER_6_97
*895 FILLER_7_101
*896 FILLER_7_123
*897 FILLER_7_138
*898 FILLER_7_14
*899 FILLER_7_150
*900 FILLER_7_162
*901 FILLER_7_169
*902 FILLER_7_181
*903 FILLER_7_189
*904 FILLER_7_23
*905 FILLER_7_35
*906 FILLER_7_47
*907 FILLER_7_55
*908 FILLER_7_6
*909 FILLER_7_65
*910 FILLER_7_78
*911 FILLER_7_82
*912 FILLER_7_89
*913 FILLER_8_100
*914 FILLER_8_116
*915 FILLER_8_120
*916 FILLER_8_136
*917 FILLER_8_14
*918 FILLER_8_154
*919 FILLER_8_166
*920 FILLER_8_178
*921 FILLER_8_26
*922 FILLER_8_29
*923 FILLER_8_3
*924 FILLER_8_42
*925 FILLER_8_54
*926 FILLER_8_66
*927 FILLER_8_80
*928 FILLER_9_108
*929 FILLER_9_120
*930 FILLER_9_126
*931 FILLER_9_135
*932 FILLER_9_145
*933 FILLER_9_157
*934 FILLER_9_165
*935 FILLER_9_169
*936 FILLER_9_181
*937 FILLER_9_189
*938 FILLER_9_26
*939 FILLER_9_34
*940 FILLER_9_49
*941 FILLER_9_55
*942 FILLER_9_67
*943 FILLER_9_75
*944 FILLER_9_83
*945 FILLER_9_92
*946 PHY_EDGE_ROW_0_Left_28
*947 PHY_EDGE_ROW_0_Right_0
*948 PHY_EDGE_ROW_10_Left_38
*949 PHY_EDGE_ROW_10_Right_10
*950 PHY_EDGE_ROW_11_Left_39
*951 PHY_EDGE_ROW_11_Right_11
*952 PHY_EDGE_ROW_12_Left_40
*953 PHY_EDGE_ROW_12_Right_12
*954 PHY_EDGE_ROW_13_Left_41
*955 PHY_EDGE_ROW_13_Right_13
*956 PHY_EDGE_ROW_14_Left_42
*957 PHY_EDGE_ROW_14_Right_14
*958 PHY_EDGE_ROW_15_Left_43
*959 PHY_EDGE_ROW_15_Right_15
*960 PHY_EDGE_ROW_16_Left_44
*961 PHY_EDGE_ROW_16_Right_16
*962 PHY_EDGE_ROW_17_Left_45
*963 PHY_EDGE_ROW_17_Right_17
*964 PHY_EDGE_ROW_18_Left_46
*965 PHY_EDGE_ROW_18_Right_18
*966 PHY_EDGE_ROW_19_Left_47
*967 PHY_EDGE_ROW_19_Right_19
*968 PHY_EDGE_ROW_1_Left_29
*969 PHY_EDGE_ROW_1_Right_1
*970 PHY_EDGE_ROW_20_Left_48
*971 PHY_EDGE_ROW_20_Right_20
*972 PHY_EDGE_ROW_21_Left_49
*973 PHY_EDGE_ROW_21_Right_21
*974 PHY_EDGE_ROW_22_Left_50
*975 PHY_EDGE_ROW_22_Right_22
*976 PHY_EDGE_ROW_23_Left_51
*977 PHY_EDGE_ROW_23_Right_23
*978 PHY_EDGE_ROW_24_Left_52
*979 PHY_EDGE_ROW_24_Right_24
*980 PHY_EDGE_ROW_25_Left_53
*981 PHY_EDGE_ROW_25_Right_25
*982 PHY_EDGE_ROW_26_Left_54
*983 PHY_EDGE_ROW_26_Right_26
*984 PHY_EDGE_ROW_27_Left_55
*985 PHY_EDGE_ROW_27_Right_27
*986 PHY_EDGE_ROW_2_Left_30
*987 PHY_EDGE_ROW_2_Right_2
*988 PHY_EDGE_ROW_3_Left_31
*989 PHY_EDGE_ROW_3_Right_3
*990 PHY_EDGE_ROW_4_Left_32
*991 PHY_EDGE_ROW_4_Right_4
*992 PHY_EDGE_ROW_5_Left_33
*993 PHY_EDGE_ROW_5_Right_5
*994 PHY_EDGE_ROW_6_Left_34
*995 PHY_EDGE_ROW_6_Right_6
*996 PHY_EDGE_ROW_7_Left_35
*997 PHY_EDGE_ROW_7_Right_7
*998 PHY_EDGE_ROW_8_Left_36
*999 PHY_EDGE_ROW_8_Right_8
*1000 PHY_EDGE_ROW_9_Left_37
*1001 PHY_EDGE_ROW_9_Right_9
*1002 TAP_TAPCELL_ROW_0_56
*1003 TAP_TAPCELL_ROW_0_57
*1004 TAP_TAPCELL_ROW_0_58
*1005 TAP_TAPCELL_ROW_0_59
*1006 TAP_TAPCELL_ROW_0_60
*1007 TAP_TAPCELL_ROW_0_61
*1008 TAP_TAPCELL_ROW_10_89
*1009 TAP_TAPCELL_ROW_10_90
*1010 TAP_TAPCELL_ROW_10_91
*1011 TAP_TAPCELL_ROW_11_92
*1012 TAP_TAPCELL_ROW_11_93
*1013 TAP_TAPCELL_ROW_11_94
*1014 TAP_TAPCELL_ROW_12_95
*1015 TAP_TAPCELL_ROW_12_96
*1016 TAP_TAPCELL_ROW_12_97
*1017 TAP_TAPCELL_ROW_13_100
*1018 TAP_TAPCELL_ROW_13_98
*1019 TAP_TAPCELL_ROW_13_99
*1020 TAP_TAPCELL_ROW_14_101
*1021 TAP_TAPCELL_ROW_14_102
*1022 TAP_TAPCELL_ROW_14_103
*1023 TAP_TAPCELL_ROW_15_104
*1024 TAP_TAPCELL_ROW_15_105
*1025 TAP_TAPCELL_ROW_15_106
*1026 TAP_TAPCELL_ROW_16_107
*1027 TAP_TAPCELL_ROW_16_108
*1028 TAP_TAPCELL_ROW_16_109
*1029 TAP_TAPCELL_ROW_17_110
*1030 TAP_TAPCELL_ROW_17_111
*1031 TAP_TAPCELL_ROW_17_112
*1032 TAP_TAPCELL_ROW_18_113
*1033 TAP_TAPCELL_ROW_18_114
*1034 TAP_TAPCELL_ROW_18_115
*1035 TAP_TAPCELL_ROW_19_116
*1036 TAP_TAPCELL_ROW_19_117
*1037 TAP_TAPCELL_ROW_19_118
*1038 TAP_TAPCELL_ROW_1_62
*1039 TAP_TAPCELL_ROW_1_63
*1040 TAP_TAPCELL_ROW_1_64
*1041 TAP_TAPCELL_ROW_20_119
*1042 TAP_TAPCELL_ROW_20_120
*1043 TAP_TAPCELL_ROW_20_121
*1044 TAP_TAPCELL_ROW_21_122
*1045 TAP_TAPCELL_ROW_21_123
*1046 TAP_TAPCELL_ROW_21_124
*1047 TAP_TAPCELL_ROW_22_125
*1048 TAP_TAPCELL_ROW_22_126
*1049 TAP_TAPCELL_ROW_22_127
*1050 TAP_TAPCELL_ROW_23_128
*1051 TAP_TAPCELL_ROW_23_129
*1052 TAP_TAPCELL_ROW_23_130
*1053 TAP_TAPCELL_ROW_24_131
*1054 TAP_TAPCELL_ROW_24_132
*1055 TAP_TAPCELL_ROW_24_133
*1056 TAP_TAPCELL_ROW_25_134
*1057 TAP_TAPCELL_ROW_25_135
*1058 TAP_TAPCELL_ROW_25_136
*1059 TAP_TAPCELL_ROW_26_137
*1060 TAP_TAPCELL_ROW_26_138
*1061 TAP_TAPCELL_ROW_26_139
*1062 TAP_TAPCELL_ROW_27_140
*1063 TAP_TAPCELL_ROW_27_141
*1064 TAP_TAPCELL_ROW_27_142
*1065 TAP_TAPCELL_ROW_27_143
*1066 TAP_TAPCELL_ROW_27_144
*1067 TAP_TAPCELL_ROW_27_145
*1068 TAP_TAPCELL_ROW_2_65
*1069 TAP_TAPCELL_ROW_2_66
*1070 TAP_TAPCELL_ROW_2_67
*1071 TAP_TAPCELL_ROW_3_68
*1072 TAP_TAPCELL_ROW_3_69
*1073 TAP_TAPCELL_ROW_3_70
*1074 TAP_TAPCELL_ROW_4_71
*1075 TAP_TAPCELL_ROW_4_72
*1076 TAP_TAPCELL_ROW_4_73
*1077 TAP_TAPCELL_ROW_5_74
*1078 TAP_TAPCELL_ROW_5_75
*1079 TAP_TAPCELL_ROW_5_76
*1080 TAP_TAPCELL_ROW_6_77
*1081 TAP_TAPCELL_ROW_6_78
*1082 TAP_TAPCELL_ROW_6_79
*1083 TAP_TAPCELL_ROW_7_80
*1084 TAP_TAPCELL_ROW_7_81
*1085 TAP_TAPCELL_ROW_7_82
*1086 TAP_TAPCELL_ROW_8_83
*1087 TAP_TAPCELL_ROW_8_84
*1088 TAP_TAPCELL_ROW_8_85
*1089 TAP_TAPCELL_ROW_9_86
*1090 TAP_TAPCELL_ROW_9_87
*1091 TAP_TAPCELL_ROW_9_88
*1092 _227_
*1093 _228_
*1094 _229_
*1095 _230_
*1096 _231_
*1097 _232_
*1098 _233_
*1099 _234_
*1100 _235_
*1101 _236_
*1102 _237_
*1103 _238_
*1104 _239_
*1105 _240_
*1106 _241_
*1107 _242_
*1108 _243_
*1109 _244_
*1110 _245_
*1111 _246_
*1112 _247_
*1113 _248_
*1114 _249_
*1115 _250_
*1116 _251_
*1117 _252_
*1118 _253_
*1119 _254_
*1120 _255_
*1121 _256_
*1122 _257_
*1123 _258_
*1124 _259_
*1125 _260_
*1126 _261_
*1127 _262_
*1128 _263_
*1129 _264_
*1130 _265_
*1131 _266_
*1132 _267_
*1133 _268_
*1134 _269_
*1135 _270_
*1136 _271_
*1137 _272_
*1138 _273_
*1139 _274_
*1140 _275_
*1141 _276_
*1142 _277_
*1143 _278_
*1144 _279_
*1145 _280_
*1146 _281_
*1147 _282_
*1148 _283_
*1149 _284_
*1150 _285_
*1151 _286_
*1152 _287_
*1153 _288_
*1154 _289_
*1155 _290_
*1156 _291_
*1157 _292_
*1158 _293_
*1159 _294_
*1160 _295_
*1161 _296_
*1162 _297_
*1163 _298_
*1164 _299_
*1165 _300_
*1166 _301_
*1167 _302_
*1168 _303_
*1169 _304_
*1170 _305_
*1171 _306_
*1172 _307_
*1173 _308_
*1174 _309_
*1175 _310_
*1176 _311_
*1177 _312_
*1178 _313_
*1179 _314_
*1180 _315_
*1181 _316_
*1182 _317_
*1183 _318_
*1184 _319_
*1185 _320_
*1186 _321_
*1187 _322_
*1188 _323_
*1189 _324_
*1190 _325_
*1191 _326_
*1192 _327_
*1193 _328_
*1194 _329_
*1195 _330_
*1196 _331_
*1197 _332_
*1198 _333_
*1199 _334_
*1200 _335_
*1201 _336_
*1202 _337_
*1203 _338_
*1204 _339_
*1205 _340_
*1206 _341_
*1207 _342_
*1208 _343_
*1209 _344_
*1210 _345_
*1211 _346_
*1212 _347_
*1213 _348_
*1214 _349_
*1215 _350_
*1216 _351_
*1217 _352_
*1218 _353_
*1219 _354_
*1220 _355_
*1221 _356_
*1222 _357_
*1223 _358_
*1224 _359_
*1225 _360_
*1226 _361_
*1227 _362_
*1228 _363_
*1229 _364_
*1230 _365_
*1231 _366_
*1232 _367_
*1233 _368_
*1234 _369_
*1235 _370_
*1236 _371_
*1237 _372_
*1238 _373_
*1239 _374_
*1240 _375_
*1241 _376_
*1242 _377_
*1243 _378_
*1244 _379_
*1245 _380_
*1246 _381_
*1247 _382_
*1248 _383_
*1249 _384_
*1250 _385_
*1251 _386_
*1252 _387_
*1253 _388_
*1254 _389_
*1255 _390_
*1256 _391_
*1257 _392_
*1258 _393_
*1259 _394_
*1260 _395_
*1261 _396_
*1262 _397_
*1263 _398_
*1264 _399_
*1265 _400_
*1266 _401_
*1267 _402_
*1268 _403_
*1269 _404_
*1270 _405_
*1271 _406_
*1272 _407_
*1273 _408_
*1274 _409_
*1275 _410_
*1276 _411_
*1277 _412_
*1278 _413_
*1279 _414_
*1280 _415_
*1281 _416_
*1282 _417_
*1283 _418_
*1284 _419_
*1285 _420_
*1286 _421_
*1287 _422_
*1288 _423_
*1289 _424_
*1290 _425_
*1291 _426_
*1292 _427_
*1293 _428_
*1294 _429_
*1295 _430_
*1296 _431_
*1297 _432_
*1298 _433_
*1299 _434_
*1300 _435_
*1301 _436_
*1302 _437_
*1303 _438_
*1304 _439_
*1305 _440_
*1306 _441_
*1307 _442_
*1308 _443_
*1309 _444_
*1310 _445_
*1311 _446_
*1312 _447_
*1313 _448_
*1314 _449_
*1315 _450_
*1316 _451_
*1317 _452_
*1318 _453_
*1319 _454_
*1320 _455_
*1321 _456_
*1322 _457_
*1323 _458_
*1324 _459_
*1325 _460_
*1326 _461_
*1327 _462_
*1328 _463_
*1329 _464_
*1330 _465_
*1331 _466_
*1332 _467_
*1333 _468_
*1334 _469_
*1335 _470_
*1336 _471_
*1337 _472_
*1338 _473_
*1339 _474_
*1340 _475_
*1341 _476_
*1342 _477_
*1343 _478_
*1344 _479_
*1345 _480_
*1346 _481_
*1347 _482_
*1348 _483_
*1349 _484_
*1350 _485_
*1351 _486_
*1352 _487_
*1353 _488_
*1354 _489_
*1355 fanout100
*1356 fanout101
*1357 fanout102
*1358 fanout103
*1359 fanout104
*1360 fanout105
*1361 fanout106
*1362 fanout107
*1363 fanout108
*1364 fanout109
*1365 fanout110
*1366 fanout111
*1367 fanout85
*1368 fanout86
*1369 fanout87
*1370 fanout88
*1371 fanout89
*1372 fanout90
*1373 fanout91
*1374 fanout92
*1375 fanout93
*1376 fanout94
*1377 fanout95
*1378 fanout96
*1379 fanout97
*1380 fanout98
*1381 fanout99
*1382 input1
*1383 input10
*1384 input11
*1385 input12
*1386 input13
*1387 input14
*1388 input15
*1389 input16
*1390 input17
*1391 input18
*1392 input19
*1393 input2
*1394 input20
*1395 input21
*1396 input22
*1397 input23
*1398 input24
*1399 input25
*1400 input26
*1401 input27
*1402 input28
*1403 input29
*1404 input3
*1405 input30
*1406 input31
*1407 input32
*1408 input33
*1409 input34
*1410 input35
*1411 input36
*1412 input37
*1413 input38
*1414 input39
*1415 input4
*1416 input40
*1417 input41
*1418 input42
*1419 input43
*1420 input44
*1421 input45
*1422 input46
*1423 input47
*1424 input48
*1425 input5
*1426 input6
*1427 input7
*1428 input8
*1429 input9
*1430 output49
*1431 output50
*1432 output51
*1433 output52
*1434 output53
*1435 output54
*1436 output55
*1437 output56
*1438 output57
*1439 output58
*1440 output59
*1441 output60
*1442 output61
*1443 output62
*1444 output63
*1445 output64
*1446 output65
*1447 output66
*1448 output67
*1449 output68
*1450 output69
*1451 output70
*1452 output71
*1453 output72
*1454 output73
*1455 output74
*1456 output75
*1457 output76
*1458 output77
*1459 output78
*1460 output79
*1461 output80
*1462 output81
*1463 output82
*1464 output83
*1465 output84

*PORTS
bm_s0_s0_i[0] I
bm_s0_s0_i[1] I
bm_s0_s2_i[0] I
bm_s0_s2_i[1] I
bm_s1_s0_i[0] I
bm_s1_s0_i[1] I
bm_s1_s2_i[0] I
bm_s1_s2_i[1] I
bm_s2_s1_i[0] I
bm_s2_s1_i[1] I
bm_s2_s3_i[0] I
bm_s2_s3_i[1] I
bm_s3_s1_i[0] I
bm_s3_s1_i[1] I
bm_s3_s3_i[0] I
bm_s3_s3_i[1] I
dec_bits_o[0] O
dec_bits_o[1] O
dec_bits_o[2] O
dec_bits_o[3] O
pm_s0_i[0] I
pm_s0_i[1] I
pm_s0_i[2] I
pm_s0_i[3] I
pm_s0_i[4] I
pm_s0_i[5] I
pm_s0_i[6] I
pm_s0_i[7] I
pm_s0_o[0] O
pm_s0_o[1] O
pm_s0_o[2] O
pm_s0_o[3] O
pm_s0_o[4] O
pm_s0_o[5] O
pm_s0_o[6] O
pm_s0_o[7] O
pm_s1_i[0] I
pm_s1_i[1] I
pm_s1_i[2] I
pm_s1_i[3] I
pm_s1_i[4] I
pm_s1_i[5] I
pm_s1_i[6] I
pm_s1_i[7] I
pm_s1_o[0] O
pm_s1_o[1] O
pm_s1_o[2] O
pm_s1_o[3] O
pm_s1_o[4] O
pm_s1_o[5] O
pm_s1_o[6] O
pm_s1_o[7] O
pm_s2_i[0] I
pm_s2_i[1] I
pm_s2_i[2] I
pm_s2_i[3] I
pm_s2_i[4] I
pm_s2_i[5] I
pm_s2_i[6] I
pm_s2_i[7] I
pm_s2_o[0] O
pm_s2_o[1] O
pm_s2_o[2] O
pm_s2_o[3] O
pm_s2_o[4] O
pm_s2_o[5] O
pm_s2_o[6] O
pm_s2_o[7] O
pm_s3_i[0] I
pm_s3_i[1] I
pm_s3_i[2] I
pm_s3_i[3] I
pm_s3_i[4] I
pm_s3_i[5] I
pm_s3_i[6] I
pm_s3_i[7] I
pm_s3_o[0] O
pm_s3_o[1] O
pm_s3_o[2] O
pm_s3_o[3] O
pm_s3_o[4] O
pm_s3_o[5] O
pm_s3_o[6] O
pm_s3_o[7] O

*D_NET *1 0.00219519
*CONN
*P bm_s0_s0_i[0] I
*I *441:DIODE I *D sky130_fd_sc_hd__diode_2
*I *1382:A I *D sky130_fd_sc_hd__buf_1
*CAP
1 bm_s0_s0_i[0] 0.000668008
2 *441:DIODE 3.78118e-05
3 *1382:A 2.34823e-05
4 *1:13 0.000729302
5 *441:DIODE *1347:A0 0.000130423
6 *441:DIODE *314:8 1.73399e-05
7 *1:13 pm_s0_o[0] 0.000132969
8 *1:13 *452:DIODE 0.000129522
9 *1:13 *1347:A0 0.000228001
10 *1:13 *2:13 5.50049e-05
11 *1:13 *374:10 1.39431e-05
12 *1:13 *409:61 2.93845e-05
*RES
1 bm_s0_s0_i[0] *1:13 34.8443 
2 *1:13 *1382:A 23.4971 
3 *1:13 *441:DIODE 24.5743 
*END

*D_NET *2 0.00107607
*CONN
*P bm_s0_s0_i[1] I
*I *452:DIODE I *D sky130_fd_sc_hd__diode_2
*I *1393:A I *D sky130_fd_sc_hd__clkbuf_1
*CAP
1 bm_s0_s0_i[1] 0.000314636
2 *452:DIODE 5.45508e-05
3 *1393:A 0
4 *2:13 0.000369187
5 *2:13 pm_s0_o[0] 0.000153173
6 *2:13 *3:13 0
7 *1:13 *452:DIODE 0.000129522
8 *1:13 *2:13 5.50049e-05
*RES
1 bm_s0_s0_i[1] *2:13 26.3752 
2 *2:13 *1393:A 23 
3 *2:13 *452:DIODE 24.5743 
*END

*D_NET *3 0.00105221
*CONN
*P bm_s0_s2_i[0] I
*I *463:DIODE I *D sky130_fd_sc_hd__diode_2
*I *1404:A I *D sky130_fd_sc_hd__buf_1
*CAP
1 bm_s0_s2_i[0] 0.000333603
2 *463:DIODE 8.84082e-05
3 *1404:A 0
4 *3:13 0.000422012
5 *463:DIODE *337:12 5.50106e-05
6 *3:13 pm_s0_o[0] 0.000153173
7 *3:13 *4:13 0
8 *2:13 *3:13 0
*RES
1 bm_s0_s2_i[0] *3:13 26.3752 
2 *3:13 *1404:A 23 
3 *3:13 *463:DIODE 24.5743 
*END

*D_NET *4 0.000787371
*CONN
*P bm_s0_s2_i[1] I
*I *473:DIODE I *D sky130_fd_sc_hd__diode_2
*I *1415:A I *D sky130_fd_sc_hd__buf_1
*CAP
1 bm_s0_s2_i[1] 0.000310726
2 *473:DIODE 7.14448e-05
3 *1415:A 0
4 *4:13 0.000382171
5 *473:DIODE *359:10 2.30292e-05
6 *4:13 *5:7 0
7 *4:13 *334:14 0
8 *3:13 *4:13 0
*RES
1 bm_s0_s2_i[1] *4:13 25.6709 
2 *4:13 *1415:A 23 
3 *4:13 *473:DIODE 24.5743 
*END

*D_NET *5 0.00089296
*CONN
*P bm_s1_s0_i[0] I
*I *1425:A I *D sky130_fd_sc_hd__clkbuf_1
*I *474:DIODE I *D sky130_fd_sc_hd__diode_2
*CAP
1 bm_s1_s0_i[0] 0.000196749
2 *1425:A 0.000104307
3 *474:DIODE 0.000120489
4 *5:7 0.000421545
5 *474:DIODE *1298:B 1.70831e-05
6 *1425:A *1298:B 3.2788e-05
7 *5:7 *6:13 0
8 *4:13 *5:7 0
*RES
1 bm_s1_s0_i[0] *5:7 8.672 
2 *5:7 *474:DIODE 39.6468 
3 *5:7 *1425:A 39.9989 
*END

*D_NET *6 0.00110386
*CONN
*P bm_s1_s0_i[1] I
*I *475:DIODE I *D sky130_fd_sc_hd__diode_2
*I *1426:A I *D sky130_fd_sc_hd__buf_1
*CAP
1 bm_s1_s0_i[1] 0.000298476
2 *475:DIODE 8.10265e-05
3 *1426:A 0
4 *6:13 0.000379502
5 *475:DIODE *476:DIODE 0.000130423
6 *475:DIODE *1297:B 0.000141052
7 *6:13 *476:DIODE 7.33773e-05
8 *6:13 *7:9 0
9 *6:13 *334:14 0
10 *5:7 *6:13 0
*RES
1 bm_s1_s0_i[1] *6:13 25.6709 
2 *6:13 *1426:A 23 
3 *6:13 *475:DIODE 25.5271 
*END

*D_NET *7 0.0014978
*CONN
*P bm_s1_s2_i[0] I
*I *1427:A I *D sky130_fd_sc_hd__dlymetal6s2s_1
*I *476:DIODE I *D sky130_fd_sc_hd__diode_2
*CAP
1 bm_s1_s2_i[0] 0.000248083
2 *1427:A 9.37145e-05
3 *476:DIODE 0.0003052
4 *7:9 0.000646998
5 *476:DIODE *334:14 0
6 *476:DIODE *381:21 0
7 *7:9 *8:13 0
8 *7:9 *381:21 0
9 *475:DIODE *476:DIODE 0.000130423
10 *6:13 *476:DIODE 7.33773e-05
11 *6:13 *7:9 0
*RES
1 bm_s1_s2_i[0] *7:9 10.2299 
2 *7:9 *476:DIODE 44.3179 
3 *7:9 *1427:A 39.5743 
*END

*D_NET *8 0.00106369
*CONN
*P bm_s1_s2_i[1] I
*I *477:DIODE I *D sky130_fd_sc_hd__diode_2
*I *1428:A I *D sky130_fd_sc_hd__clkbuf_1
*CAP
1 bm_s1_s2_i[1] 0.000404849
2 *477:DIODE 8.72798e-05
3 *1428:A 0
4 *8:13 0.000492128
5 *8:13 *1173:A 3.52734e-05
6 *8:13 *9:13 0
7 *8:13 *334:14 0
8 *8:13 *403:8 4.41619e-05
9 *7:9 *8:13 0
*RES
1 bm_s1_s2_i[1] *8:13 28.1359 
2 *8:13 *1428:A 23 
3 *8:13 *477:DIODE 24.5743 
*END

*D_NET *9 0.000774121
*CONN
*P bm_s2_s1_i[0] I
*I *478:DIODE I *D sky130_fd_sc_hd__diode_2
*I *1429:A I *D sky130_fd_sc_hd__buf_1
*CAP
1 bm_s2_s1_i[0] 0.00030252
2 *478:DIODE 6.83964e-05
3 *1429:A 0
4 *9:13 0.000370916
5 *478:DIODE *414:6 3.22879e-05
6 *9:13 *10:13 0
7 *9:13 *334:14 0
8 *8:13 *9:13 0
*RES
1 bm_s2_s1_i[0] *9:13 25.6709 
2 *9:13 *1429:A 23 
3 *9:13 *478:DIODE 24.5743 
*END

*D_NET *10 0.000816715
*CONN
*P bm_s2_s1_i[1] I
*I *430:DIODE I *D sky130_fd_sc_hd__diode_2
*I *1383:A I *D sky130_fd_sc_hd__buf_1
*CAP
1 bm_s2_s1_i[1] 0.000292321
2 *430:DIODE 8.49502e-05
3 *1383:A 0
4 *10:13 0.000377271
5 *430:DIODE *315:8 2.93845e-05
6 *10:13 *11:13 0
7 *10:13 *329:10 3.2788e-05
8 *9:13 *10:13 0
*RES
1 bm_s2_s1_i[1] *10:13 25.6709 
2 *10:13 *1383:A 23 
3 *10:13 *430:DIODE 24.5743 
*END

*D_NET *11 0.000824921
*CONN
*P bm_s2_s3_i[0] I
*I *431:DIODE I *D sky130_fd_sc_hd__diode_2
*I *1384:A I *D sky130_fd_sc_hd__buf_1
*CAP
1 bm_s2_s3_i[0] 0.000296424
2 *431:DIODE 8.49502e-05
3 *1384:A 0
4 *11:13 0.000381374
5 *431:DIODE *326:8 2.93845e-05
6 *11:13 *12:13 0
7 *11:13 *329:10 3.2788e-05
8 *10:13 *11:13 0
*RES
1 bm_s2_s3_i[0] *11:13 25.6709 
2 *11:13 *1384:A 23 
3 *11:13 *431:DIODE 24.5743 
*END

*D_NET *12 0.000798443
*CONN
*P bm_s2_s3_i[1] I
*I *432:DIODE I *D sky130_fd_sc_hd__diode_2