*SPEF "ieee 1481-1999"
*DESIGN "sipo"
*DATE "02:27:19 Saturday January 24, 2026"
*VENDOR "The OpenROAD Project"
*PROGRAM "OpenROAD"
*VERSION "edf00dff99f6c40d67a30c0e22a8191c5d2ed9d6"
*DESIGN_FLOW "NAME_SCOPE LOCAL" "PIN_CAP NONE"
*DIVIDER /
*DELIMITER :
*BUS_DELIMITER []
*T_UNIT 1 NS
*C_UNIT 1 PF
*R_UNIT 1 OHM
*L_UNIT 1 HENRY

*NAME_MAP
*1 byte_ready_o
*2 clk
*3 data_parallel_o[0]
*4 data_parallel_o[1]
*5 data_parallel_o[2]
*6 data_parallel_o[3]
*7 data_parallel_o[4]
*8 data_parallel_o[5]
*9 data_parallel_o[6]
*10 data_parallel_o[7]
*11 data_serial_i
*12 rst_n
*13 valid_serial_i
*16 _00_
*17 _01_
*18 _02_
*19 _03_
*20 _04_
*21 _05_
*22 _06_
*23 _07_
*24 _08_
*25 _09_
*26 _10_
*27 _11_
*28 _12_
*29 _13_
*30 clknet_0_clk
*31 clknet_1_0__leaf_clk
*32 clknet_1_1__leaf_clk
*33 count\[0\]
*34 count\[1\]
*35 count\[2\]
*36 net1
*37 net10
*38 net11
*39 net12
*40 net13
*41 net14
*42 net15
*43 net16
*44 net2
*45 net3
*46 net4
*47 net5
*48 net6
*49 net7
*50 net8
*51 net9
*52 ANTENNA_clkbuf_0_clk_A
*53 ANTENNA_input1_A
*54 ANTENNA_input2_A
*55 ANTENNA_input3_A
*56 FILLER_0_15
*57 FILLER_0_21
*58 FILLER_0_29
*59 FILLER_0_3
*60 FILLER_0_66
*61 FILLER_0_70
*62 FILLER_10_22
*63 FILLER_10_29
*64 FILLER_10_3
*65 FILLER_10_41
*66 FILLER_10_53
*67 FILLER_10_63
*68 FILLER_11_20
*69 FILLER_11_29
*70 FILLER_11_41
*71 FILLER_11_53
*72 FILLER_11_57
*73 FILLER_11_8
*74 FILLER_1_15
*75 FILLER_1_27
*76 FILLER_1_3
*77 FILLER_1_66
*78 FILLER_1_70
*79 FILLER_2_15
*80 FILLER_2_27
*81 FILLER_2_29
*82 FILLER_2_3
*83 FILLER_2_37
*84 FILLER_2_66
*85 FILLER_2_70
*86 FILLER_3_17
*87 FILLER_3_29
*88 FILLER_3_35
*89 FILLER_3_5
*90 FILLER_3_66
*91 FILLER_3_70
*92 FILLER_4_14
*93 FILLER_4_26
*94 FILLER_4_31
*95 FILLER_4_43
*96 FILLER_4_6
*97 FILLER_5_3
*98 FILLER_5_66
*99 FILLER_5_70
*100 FILLER_6_3
*101 FILLER_6_42
*102 FILLER_6_66
*103 FILLER_6_7
*104 FILLER_6_70
*105 FILLER_7_3
*106 FILLER_7_35
*107 FILLER_7_66
*108 FILLER_7_70
*109 FILLER_8_34
*110 FILLER_8_42
*111 FILLER_9_24
*112 FILLER_9_3
*113 FILLER_9_32
*114 FILLER_9_54
*115 FILLER_9_70
*116 PHY_EDGE_ROW_0_Left_12
*117 PHY_EDGE_ROW_0_Right_0
*118 PHY_EDGE_ROW_10_Left_22
*119 PHY_EDGE_ROW_10_Right_10
*120 PHY_EDGE_ROW_11_Left_23
*121 PHY_EDGE_ROW_11_Right_11
*122 PHY_EDGE_ROW_1_Left_13
*123 PHY_EDGE_ROW_1_Right_1
*124 PHY_EDGE_ROW_2_Left_14
*125 PHY_EDGE_ROW_2_Right_2
*126 PHY_EDGE_ROW_3_Left_15
*127 PHY_EDGE_ROW_3_Right_3
*128 PHY_EDGE_ROW_4_Left_16
*129 PHY_EDGE_ROW_4_Right_4
*130 PHY_EDGE_ROW_5_Left_17
*131 PHY_EDGE_ROW_5_Right_5
*132 PHY_EDGE_ROW_6_Left_18
*133 PHY_EDGE_ROW_6_Right_6
*134 PHY_EDGE_ROW_7_Left_19
*135 PHY_EDGE_ROW_7_Right_7
*136 PHY_EDGE_ROW_8_Left_20
*137 PHY_EDGE_ROW_8_Right_8
*138 PHY_EDGE_ROW_9_Left_21
*139 PHY_EDGE_ROW_9_Right_9
*140 TAP_TAPCELL_ROW_0_24
*141 TAP_TAPCELL_ROW_0_25
*142 TAP_TAPCELL_ROW_10_35
*143 TAP_TAPCELL_ROW_11_36
*144 TAP_TAPCELL_ROW_11_37
*145 TAP_TAPCELL_ROW_1_26
*146 TAP_TAPCELL_ROW_2_27
*147 TAP_TAPCELL_ROW_3_28
*148 TAP_TAPCELL_ROW_4_29
*149 TAP_TAPCELL_ROW_5_30
*150 TAP_TAPCELL_ROW_6_31
*151 TAP_TAPCELL_ROW_7_32
*152 TAP_TAPCELL_ROW_8_33
*153 TAP_TAPCELL_ROW_9_34
*154 _14_
*155 _15_
*156 _16_
*157 _17_
*158 _18_
*159 _19_
*160 _20_
*161 _21_
*162 _22_
*163 _23_
*164 _24_
*165 _25_
*166 _26_
*167 _27_
*168 _28_
*169 _29_
*170 _30_
*171 _31_
*172 _32_
*173 _33_
*174 _34_
*175 _35_
*176 _36_
*177 _37_
*178 _38_
*179 _39_
*180 clkbuf_0_clk
*181 clkbuf_1_0__f_clk
*182 clkbuf_1_1__f_clk
*183 fanout13
*184 fanout14
*185 fanout15
*186 fanout16
*187 input1
*188 input2
*189 input3
*190 output10
*191 output11
*192 output12
*193 output4
*194 output5
*195 output6
*196 output7
*197 output8
*198 output9

*PORTS
byte_ready_o O
clk I
data_parallel_o[0] O
data_parallel_o[1] O
data_parallel_o[2] O
data_parallel_o[3] O
data_parallel_o[4] O
data_parallel_o[5] O
data_parallel_o[6] O
data_parallel_o[7] O
data_serial_i I
rst_n I
valid_serial_i I

*D_NET *1 0.00148045
*CONN
*P byte_ready_o O
*I *193:X O *D sky130_fd_sc_hd__buf_4
*CAP
1 byte_ready_o 0.000406041
2 *193:X 0.000334182
3 *1:8 0.000740224
4 byte_ready_o data_parallel_o[7] 0
5 *1:8 data_parallel_o[7] 0
*RES
1 *193:X *1:8 45.0118 
2 *1:8 byte_ready_o 9.4448 
*END

*D_NET *2 0.0038375
*CONN
*P clk I
*I *180:A I *D sky130_fd_sc_hd__clkbuf_16
*I *52:DIODE I *D sky130_fd_sc_hd__diode_2
*CAP
1 clk 0.00160759
2 *180:A 0.000181157
3 *52:DIODE 0
4 *2:9 0.00178875
5 *180:A *178:RESET_B 6.07611e-06
6 *180:A *33:25 1.94812e-05
7 *180:A *41:34 0.000108672
8 *180:A *43:16 2.93845e-05
9 *180:A *43:18 0
10 *180:A *44:10 9.63918e-05
11 *2:9 *195:A 0
12 *2:9 *43:18 0
13 *2:9 *43:24 0
14 *2:9 *47:8 0
15 *2:9 *47:18 0
16 *2:9 *48:10 0
17 *2:9 *49:14 0
*RES
1 clk *2:9 26.8058 
2 *2:9 *52:DIODE 38 
3 *2:9 *180:A 42.64 
*END

*D_NET *3 0.00474512
*CONN
*P data_parallel_o[0] O
*I *194:X O *D sky130_fd_sc_hd__buf_4
*CAP
1 data_parallel_o[0] 0.000563068
2 *194:X 0.00132377
3 *3:12 0.00188683
4 data_parallel_o[0] data_parallel_o[1] 2.50227e-05
5 data_parallel_o[0] *47:18 0
6 *3:12 *160:A0 0.000140259
7 *3:12 *160:A1 5.50106e-05
8 *3:12 *160:S 4.79641e-05
9 *3:12 *172:D 0.000102911
10 *3:12 *194:A 0.000408032
11 *3:12 *5:10 0.000144352
12 *3:12 *49:14 4.79008e-05
*RES
1 *194:X *3:12 45.2471 
2 *3:12 data_parallel_o[0] 30.2371 
*END

*D_NET *4 0.00347258
*CONN
*P data_parallel_o[1] O
*I *195:X O *D sky130_fd_sc_hd__buf_4
*CAP
1 data_parallel_o[1] 0.000407673
2 *195:X 0.000752496
3 *4:10 0.00116017
4 data_parallel_o[1] data_parallel_o[2] 0
5 data_parallel_o[1] *160:A1 0
6 *4:10 *161:S 0.000180218
7 *4:10 *195:A 0.000146195
8 *4:10 *21:10 9.3008e-05
9 *4:10 *49:6 5.22448e-05
10 *4:10 *49:25 0.000655554
11 data_parallel_o[0] data_parallel_o[1] 2.50227e-05
*RES
1 *195:X *4:10 41.415 
2 *4:10 data_parallel_o[1] 27.2482 
*END

*D_NET *5 0.00394208
*CONN
*P data_parallel_o[2] O
*I *196:X O *D sky130_fd_sc_hd__buf_4
*CAP
1 data_parallel_o[2] 0.000578766
2 *196:X 0.00106067
3 *5:10 0.00163944
4 data_parallel_o[2] data_parallel_o[3] 0
5 data_parallel_o[2] *160:A1 0
6 data_parallel_o[2] *48:29 0
7 *5:10 *160:A0 1.41077e-05
8 *5:10 *160:S 9.91895e-05
9 *5:10 *172:D 0.000190561
10 *5:10 *194:A 7.40718e-05
11 *5:10 *49:14 0.000140931
12 data_parallel_o[1] data_parallel_o[2] 0
13 *3:12 *5:10 0.000144352
*RES
1 *196:X *5:10 40.3379 
2 *5:10 data_parallel_o[2] 27.9438 
*END

*D_NET *6 0.00276579
*CONN
*P data_parallel_o[3] O
*I *197:X O *D sky130_fd_sc_hd__buf_4
*CAP
1 data_parallel_o[3] 0.000932222
2 *197:X 0.000360893
3 *6:10 0.00129311
4 data_parallel_o[3] data_parallel_o[4] 0
5 *6:10 *175:RESET_B 4.93812e-05
6 *6:10 *197:A 0.000100803
7 *6:10 *21:10 0
8 *6:10 *32:29 0
9 *6:10 *43:18 0
10 *6:10 *50:6 2.93747e-05
11 data_parallel_o[2] data_parallel_o[3] 0
*RES
1 *197:X *6:10 44.5975 
2 *6:10 data_parallel_o[3] 10.7328 
*END

*D_NET *7 0.00186917
*CONN
*P data_parallel_o[4] O
*I *198:X O *D sky130_fd_sc_hd__buf_4
*CAP
1 data_parallel_o[4] 0.000934584
2 *198:X 0.000934584
3 data_parallel_o[4] data_parallel_o[5] 0
4 data_parallel_o[4] *40:18 0
5 data_parallel_o[3] data_parallel_o[4] 0
*RES
1 *198:X data_parallel_o[4] 49.681 
*END

*D_NET *8 0.000610602
*CONN
*P data_parallel_o[5] O
*I *190:X O *D sky130_fd_sc_hd__buf_4
*CAP
1 data_parallel_o[5] 0.000305301
2 *190:X 0.000305301
3 data_parallel_o[5] data_parallel_o[6] 0
4 data_parallel_o[5] *37:19 0
5 data_parallel_o[4] data_parallel_o[5] 0
*RES
1 *190:X data_parallel_o[5] 47.6028 
*END

*D_NET *9 0.000636644
*CONN
*P data_parallel_o[6] O
*I *191:X O *D sky130_fd_sc_hd__buf_4
*CAP
1 data_parallel_o[6] 0.000318322
2 *191:X 0.000318322
3 data_parallel_o[6] data_parallel_o[7] 0
4 data_parallel_o[5] data_parallel_o[6] 0
*RES
1 *191:X data_parallel_o[6] 47.6028 
*END

*D_NET *10 0.000722223
*CONN
*P data_parallel_o[7] O
*I *192:X O *D sky130_fd_sc_hd__buf_4
*CAP
1 data_parallel_o[7] 0.000361112
2 *192:X 0.000361112
3 byte_ready_o data_parallel_o[7] 0
4 data_parallel_o[6] data_parallel_o[7] 0
5 *1:8 data_parallel_o[7] 0
*RES
1 *192:X data_parallel_o[7] 48.3071 
*END

*D_NET *11 0.000758045
*CONN
*P data_serial_i I
*I *53:DIODE I *D sky130_fd_sc_hd__diode_2
*I *187:A I *D sky130_fd_sc_hd__clkbuf_1
*CAP
1 data_serial_i 0.000264944
2 *53:DIODE 5.87053e-05
3 *187:A 0
4 *11:13 0.00032365
5 *53:DIODE *31:44 0.00010018
6 *11:13 *31:44 1.05658e-05
*RES
1 data_serial_i *11:13 24.9666 
2 *11:13 *187:A 23 
3 *11:13 *53:DIODE 24.5743 
*END

*D_NET *12 0.000703561
*CONN
*P rst_n I
*I *188:A I *D sky130_fd_sc_hd__buf_1
*I *54:DIODE I *D sky130_fd_sc_hd__diode_2
*CAP
1 rst_n 0.000228695
2 *188:A 0.000123085
3 *54:DIODE 0
4 *12:9 0.000351781
*RES
1 rst_n *12:9 9.07894 
2 *12:9 *54:DIODE 38 
3 *12:9 *188:A 40.2579 
*END

*D_NET *13 0.00121263
*CONN
*P valid_serial_i I
*I *55:DIODE I *D sky130_fd_sc_hd__diode_2
*I *189:A I *D sky130_fd_sc_hd__clkbuf_1
*CAP
1 valid_serial_i 0.00051988
2 *55:DIODE 7.02918e-05
3 *189:A 0
4 *13:13 0.000590172
5 *55:DIODE *45:10 3.22879e-05
*RES
1 valid_serial_i *13:13 30.2488 
2 *13:13 *189:A 23 
3 *13:13 *55:DIODE 24.5743 
*END

*D_NET *16 0.00100373
*CONN
*I *168:D I *D sky130_fd_sc_hd__dfrtp_1
*I *155:X O *D sky130_fd_sc_hd__and2_1
*CAP
1 *168:D 2.45378e-05
2 *155:X 0.000336136
3 *16:14 0.000360674
4 *168:D *31:70 2.86326e-05
5 *168:D *39:25 1.83327e-05
6 *16:14 *178:RESET_B 0.00015137
7 *16:14 *31:70 8.4047e-05
*RES
1 *155:X *16:14 43.6757 
2 *16:14 *168:D 38.6214 
*END

*D_NET *17 0.000452364
*CONN
*I *169:D I *D sky130_fd_sc_hd__dfrtp_1
*I *156:X O *D sky130_fd_sc_hd__xor2_1
*CAP
1 *169:D 0
2 *156:X 0.000176092
3 *17:10 0.000176092
4 *17:10 *44:8 0.00010018
*RES
1 *156:X *17:10 41.0036 
2 *17:10 *169:D 38 
*END

*D_NET *18 0.000508553
*CONN
*I *170:D I *D sky130_fd_sc_hd__dfrtp_1
*I *158:Y O *D sky130_fd_sc_hd__nor2_1
*CAP
1 *170:D 0.000119838
2 *158:Y 7.99533e-05
3 *18:8 0.000199791
4 *170:D *31:12 7.66837e-05
5 *170:D *31:20 3.22879e-05
6 *18:8 *31:12 0
*RES
1 *158:Y *18:8 39.2014 
2 *18:8 *170:D 39.9523 
*END

*D_NET *19 0.000564757
*CONN
*I *171:D I *D sky130_fd_sc_hd__dfrtp_1
*I *159:X O *D sky130_fd_sc_hd__xor2_1
*CAP
1 *171:D 7.58548e-05
2 *159:X 0.000167078
3 *19:8 0.000242932
4 *171:D *31:36 7.27182e-05
5 *171:D *31:44 6.17437e-06
6 *19:8 *31:12 0
7 *19:8 *31:36 0
8 *19:8 *35:12 0
*RES
1 *159:X *19:8 40.61 
2 *19:8 *171:D 39.5743 
*END

*D_NET *20 0.000434882
*CONN
*I *172:D I *D sky130_fd_sc_hd__dfrtp_1
*I *160:X O *D sky130_fd_sc_hd__mux2_1
*CAP
1 *172:D 7.07051e-05
2 *160:X 7.07051e-05
3 *3:12 *172:D 0.000102911
4 *5:10 *172:D 0.000190561
*RES
1 *160:X *172:D 49.1693 
*END

*D_NET *21 0.00132822
*CONN
*I *173:D I *D sky130_fd_sc_hd__dfrtp_1
*I *161:X O *D sky130_fd_sc_hd__mux2_1
*CAP
1 *173:D 4.43862e-05
2 *161:X 0.000422124
3 *21:10 0.000466511
4 *173:D *22:10 6.17437e-06
5 *21:10 *22:10 0.000296017
6 *21:10 *32:29 0
7 *4:10 *21:10 9.3008e-05
8 *6:10 *21:10 0
*RES
1 *161:X *21:10 45.7264 
2 *21:10 *173:D 38.6214 
*END

*D_NET *22 0.00114106
*CONN
*I *174:D I *D sky130_fd_sc_hd__dfrtp_1
*I *162:X O *D sky130_fd_sc_hd__mux2_1
*CAP
1 *174:D 0
2 *162:X 0.000346959
3 *22:10 0.000346959
4 *22:10 *32:25 4.49948e-05
5 *22:10 *32:29 9.99583e-05
6 *173:D *22:10 6.17437e-06
7 *21:10 *22:10 0.000296017
*RES
1 *162:X *22:10 44.8979 
2 *22:10 *174:D 38 
*END

*D_NET *23 0.00147668
*CONN
*I *175:D I *D sky130_fd_sc_hd__dfrtp_1
*I *163:X O *D sky130_fd_sc_hd__mux2_1
*CAP
1 *175:D 0
2 *163:X 0.000378786
3 *23:10 0.000378786
4 *23:10 *162:A0 2.84809e-05
5 *23:10 *163:A0 0.000297995
6 *23:10 *175:CLK 5.61311e-05
7 *23:10 *32:8 0.00010175
8 *23:10 *32:56 2.11887e-05
9 *23:10 *50:21 0.00021356
*RES
1 *163:X *23:10 47.1143 
2 *23:10 *175:D 38 
*END

*D_NET *24 0.00121236
*CONN
*I *176:D I *D sky130_fd_sc_hd__dfrtp_1
*I *164:X O *D sky130_fd_sc_hd__mux2_1
*CAP
1 *176:D 0
2 *164:X 0.000364849
3 *24:8 0.000364849
4 *24:8 *176:RESET_B 5.03619e-05
5 *24:8 *181:A 2.93747e-05
6 *24:8 *42:22 0.000362243
7 *24:8 *51:6 4.06849e-05
*RES
1 *164:X *24:8 32.2179 
2 *24:8 *176:D 23 
*END

*D_NET *25 0.00185586
*CONN
*I *177:D I *D sky130_fd_sc_hd__dfrtp_1
*I *165:X O *D sky130_fd_sc_hd__mux2_1
*CAP
1 *177:D 0.000569342
2 *165:X 0.000160976
3 *25:8 0.000730318
4 *177:D *168:RESET_B 0.000117128
5 *177:D *177:RESET_B 5.67058e-05
6 *177:D *32:56 2.93747e-05
7 *177:D *32:68 0
8 *177:D *41:66 0.000138708
9 *177:D *42:16 0
10 *177:D *42:48 0
11 *25:8 *41:66 5.3304e-05
*RES
1 *165:X *25:8 40.0507 
2 *25:8 *177:D 49.6829 
*END

*D_NET *26 0.00106921
*CONN
*I *178:D I *D sky130_fd_sc_hd__dfrtp_1
*I *166:X O *D sky130_fd_sc_hd__mux2_1
*CAP
1 *178:D 0.000211801
2 *166:X 0.000164892
3 *26:10 0.000376693
4 *178:D *178:RESET_B 0.000150642
5 *26:10 *168:RESET_B 8.62876e-05
6 *26:10 *46:10 7.88926e-05
*RES
1 *166:X *26:10 40.7757 
2 *26:10 *178:D 41.0709 
*END

*D_NET *27 0.000438713
*CONN
*I *179:D I *D sky130_fd_sc_hd__dfrtp_1
*I *167:X O *D sky130_fd_sc_hd__mux2_1
*CAP
1 *179:D 0
2 *167:X 0.000141066
3 *27:10 0.000141066
4 *27:10 *167:A1 9.84851e-05
5 *27:10 *36:8 5.80963e-05
6 *27:10 *39:18 0
*RES
1 *167:X *27:10 40.6514 
2 *27:10 *179:D 38 
*END

*D_NET *28 0.00321573
*CONN
*I *155:B I *D sky130_fd_sc_hd__and2_1
*I *158:A I *D sky130_fd_sc_hd__nor2_1
*I *159:B I *D sky130_fd_sc_hd__xor2_1
*I *154:X O *D sky130_fd_sc_hd__and3_1
*CAP
1 *155:B 0.000170827
2 *158:A 0.000262534
3 *159:B 0
4 *154:X 0.000144759
5 *28:14 0.000446659
6 *28:10 0.000499712
7 *155:B *178:RESET_B 0.000121821
8 *155:B *31:70 0
9 *158:A *29:16 0.000111841
10 *28:10 *178:RESET_B 4.55577e-05
11 *28:10 *29:10 4.96264e-05
12 *28:10 *34:6 5.50049e-05
13 *28:14 *29:16 0.000740187
14 *28:14 *31:56 0.000567196
*RES
1 *154:X *28:10 40.8793 
2 *28:10 *28:14 23.2443 
3 *28:14 *159:B 23 
4 *28:14 *158:A 28.3029 
5 *28:10 *155:B 41.5836 
*END

*D_NET *29 0.00269437
*CONN
*I *158:B I *D sky130_fd_sc_hd__nor2_1
*I *157:Y O *D sky130_fd_sc_hd__a21oi_1
*CAP
1 *158:B 0
2 *157:Y 0.000167601
3 *29:16 0.000479834
4 *29:10 0.000647434
5 *29:10 *157:A2 5.68958e-05
6 *29:16 *31:56 4.5051e-05
7 *29:16 *42:22 0.000395901
8 *158:A *29:16 0.000111841
9 *28:10 *29:10 4.96264e-05
10 *28:14 *29:16 0.000740187
*RES
1 *157:Y *29:10 40.6514 
2 *29:10 *29:16 27.905 
3 *29:16 *158:B 23 
*END

*D_NET *30 0.00261519
*CONN
*I *181:A I *D sky130_fd_sc_hd__clkbuf_16
*I *182:A I *D sky130_fd_sc_hd__clkbuf_16
*I *180:X O *D sky130_fd_sc_hd__clkbuf_16
*CAP
1 *181:A 0.000495205
2 *182:A 0.000461244
3 *180:X 0.000165209
4 *30:8 0.00112166
5 *181:A *157:A2 0
6 *181:A *185:A 4.85126e-05
7 *181:A *31:56 0.000100061
8 *181:A *42:22 3.03856e-05
9 *182:A *185:A 4.6318e-06
10 *182:A *43:18 0.000158914
11 *24:8 *181:A 2.93747e-05
*RES
1 *180:X *30:8 40.0507 
2 *30:8 *182:A 47.4043 
3 *30:8 *181:A 46.4307 
*END

*D_NET *31 0.00566811
*CONN
*I *176:CLK I *D sky130_fd_sc_hd__dfrtp_1
*I *168:CLK I *D sky130_fd_sc_hd__dfrtp_1
*I *171:CLK I *D sky130_fd_sc_hd__dfrtp_1
*I *179:CLK I *D sky130_fd_sc_hd__dfrtp_1
*I *170:CLK I *D sky130_fd_sc_hd__dfrtp_1
*I *169:CLK I *D sky130_fd_sc_hd__dfrtp_1
*I *181:X O *D sky130_fd_sc_hd__clkbuf_16
*CAP
1 *176:CLK 0
2 *168:CLK 0
3 *171:CLK 0
4 *179:CLK 0
5 *170:CLK 0
6 *169:CLK 0
7 *181:X 0
8 *31:70 0.000563213
9 *31:56 0.000943273
10 *31:44 0.00020044
11 *31:36 0.00053735
12 *31:20 0.00021248
13 *31:12 0.00057313
14 *31:6 0.00069756
15 *31:4 0.00038006
16 *31:12 *35:12 0
17 *31:12 *41:21 6.70914e-05
18 *31:36 *35:12 8.65442e-05
19 *31:36 *41:21 7.06124e-05
20 *31:44 *36:8 0.00014411
21 *31:56 *42:22 5.80851e-05
22 *31:70 *178:RESET_B 0
23 *31:70 *39:25 1.0567e-05
24 *53:DIODE *31:44 0.00010018
25 *155:B *31:70 0
26 *168:D *31:70 2.86326e-05
27 *170:D *31:12 7.66837e-05
28 *170:D *31:20 3.22879e-05
29 *171:D *31:36 7.27182e-05
30 *171:D *31:44 6.17437e-06
31 *181:A *31:56 0.000100061
32 *11:13 *31:44 1.05658e-05
33 *16:14 *31:70 8.4047e-05
34 *18:8 *31:12 0
35 *19:8 *31:12 0
36 *19:8 *31:36 0
37 *28:14 *31:56 0.000567196
38 *29:16 *31:56 4.5051e-05
*RES
1 *181:X *31:4 23 
2 *31:4 *31:6 15 
3 *31:6 *31:12 22.395 
4 *31:12 *31:20 34.06 
5 *31:20 *169:CLK 23 
6 *31:12 *170:CLK 23 
7 *31:6 *31:36 22.395 
8 *31:36 *31:44 34.6607 
9 *31:44 *179:CLK 23 
10 *31:36 *171:CLK 23 
11 *31:4 *31:56 9.19714 
12 *31:56 *31:70 38.8657 
13 *31:70 *168:CLK 23 
14 *31:56 *176:CLK 23 
*END

*D_NET *32 0.00528538
*CONN
*I *177:CLK I *D sky130_fd_sc_hd__dfrtp_1
*I *178:CLK I *D sky130_fd_sc_hd__dfrtp_1
*I *173:CLK I *D sky130_fd_sc_hd__dfrtp_1
*I *174:CLK I *D sky130_fd_sc_hd__dfrtp_1
*I *172:CLK I *D sky130_fd_sc_hd__dfrtp_1
*I *175:CLK I *D sky130_fd_sc_hd__dfrtp_1
*I *182:X O *D sky130_fd_sc_hd__clkbuf_16
*CAP
1 *177:CLK 0
2 *178:CLK 0
3 *173:CLK 0
4 *174:CLK 0
5 *172:CLK 0.000226308
6 *175:CLK 0.000101759
7 *182:X 0
8 *32:68 0.000358964
9 *32:56 0.00110121
10 *32:29 0.000522171
11 *32:25 0.000631922
12 *32:8 0.000627717
13 *32:6 0.000932146
14 *172:CLK *160:S 0
15 *172:CLK *40:22 0
16 *32:25 *162:S 0.00017761
17 *32:29 *40:20 0
18 *32:29 *40:22 0
19 *32:56 *163:A0 0
20 *32:56 *177:RESET_B 0.000141045
21 *32:56 *37:10 7.88828e-05
22 *32:56 *40:18 0
23 *32:56 *51:12 0
24 *32:68 *178:RESET_B 3.22467e-05
25 *177:D *32:56 2.93747e-05
26 *177:D *32:68 0
27 *6:10 *32:29 0
28 *21:10 *32:29 0
29 *22:10 *32:25 4.49948e-05
30 *22:10 *32:29 9.99583e-05
31 *23:10 *175:CLK 5.61311e-05
32 *23:10 *32:8 0.00010175
33 *23:10 *32:56 2.11887e-05
*RES
1 *182:X *32:6 38 
2 *32:6 *32:8 4.37071 
3 *32:8 *175:CLK 40.2579 
4 *32:8 *32:25 20.9036 
5 *32:25 *32:29 20.7793 
6 *32:29 *172:CLK 40.9621 
7 *32:29 *174:CLK 38 
8 *32:25 *173:CLK 23 
9 *32:6 *32:56 29.2721 
10 *32:56 *32:68 36.3386 
11 *32:68 *178:CLK 23 
12 *32:56 *177:CLK 23 
*END

*D_NET *33 0.00278706
*CONN
*I *157:A1 I *D sky130_fd_sc_hd__a21oi_1
*I *154:A I *D sky130_fd_sc_hd__and3_1
*I *156:A I *D sky130_fd_sc_hd__xor2_1
*I *169:Q O *D sky130_fd_sc_hd__dfrtp_1
*CAP
1 *157:A1 7.62129e-05
2 *154:A 0
3 *156:A 0
4 *169:Q 0
5 *33:25 0.000548173
6 *33:12 0.000367441
7 *33:4 0.000839401
8 *157:A1 *157:A2 4.93812e-05
9 *157:A1 *157:B1 5.56356e-05
10 *33:12 *156:B 0.000361027
11 *33:12 *41:21 0
12 *33:12 *41:34 0.000215671
13 *33:12 *44:8 2.4754e-05
14 *33:12 *44:10 5.31444e-05
15 *33:25 *157:A2 4.6318e-06
16 *33:25 *169:RESET_B 3.53164e-05
17 *33:25 *41:34 0.000123428
18 *33:25 *43:16 1.33634e-05
19 *33:25 *43:18 0
20 *180:A *33:25 1.94812e-05
*RES
1 *169:Q *33:4 23 
2 *33:4 *33:12 39.0729 
3 *33:12 *156:A 23 
4 *33:4 *33:25 37.2707 
5 *33:25 *154:A 23 
6 *33:25 *157:A1 24.5743 
*END

*D_NET *34 0.000794438
*CONN
*I *154:B I *D sky130_fd_sc_hd__and3_1
*I *157:B1 I *D sky130_fd_sc_hd__a21oi_1
*I *170:Q O *D sky130_fd_sc_hd__dfrtp_1
*CAP
1 *154:B 0
2 *157:B1 0.000123957
3 *170:Q 0.000159827
4 *34:6 0.000283784
5 *157:B1 *154:C 1.24376e-05
6 *157:B1 *157:A2 0.000102389
7 *34:6 *154:C 1.40314e-06
8 *157:A1 *157:B1 5.56356e-05
9 *28:10 *34:6 5.50049e-05
*RES
1 *170:Q *34:6 25.0507 
2 *34:6 *157:B1 25.7757 
3 *34:6 *154:B 23 
*END

*D_NET *35 0.00173711
*CONN
*I *155:A I *D sky130_fd_sc_hd__and2_1
*I *159:A I *D sky130_fd_sc_hd__xor2_1
*I *171:Q O *D sky130_fd_sc_hd__dfrtp_1
*CAP
1 *155:A 0.000107493
2 *159:A 0
3 *171:Q 0
4 *35:12 0.000697366
5 *35:4 0.000804859
6 *155:A *178:RESET_B 3.71369e-05
7 *35:12 *178:RESET_B 3.7122e-06
8 *19:8 *35:12 0
9 *31:12 *35:12 0
10 *31:36 *35:12 8.65442e-05
*RES
1 *171:Q *35:4 23 
2 *35:4 *35:12 39.1971 
3 *35:12 *159:A 23 
4 *35:4 *155:A 24.9471 
*END

*D_NET *36 0.00117839
*CONN
*I *167:A1 I *D sky130_fd_sc_hd__mux2_1
*I *187:X O *D sky130_fd_sc_hd__clkbuf_1
*CAP
1 *167:A1 0.0002236
2 *187:X 0.000186895
3 *36:8 0.000410494
4 *167:A1 *39:18 5.67058e-05
5 *27:10 *167:A1 9.84851e-05
6 *27:10 *36:8 5.80963e-05
7 *31:44 *36:8 0.00014411
*RES
1 *187:X *36:8 42.3707 
2 *36:8 *167:A1 42.4329 
*END

*D_NET *37 0.00261888
*CONN
*I *165:A0 I *D sky130_fd_sc_hd__mux2_1
*I *190:A I *D sky130_fd_sc_hd__buf_4
*I *164:A1 I *D sky130_fd_sc_hd__mux2_1
*I *177:Q O *D sky130_fd_sc_hd__dfrtp_1
*CAP
1 *165:A0 0.000317896
2 *190:A 8.40953e-05
3 *164:A1 0
4 *177:Q 0.000226048
5 *37:19 0.000477932
6 *37:10 0.000301989
7 *165:A0 *165:A1 0.000135037
8 *165:A0 *165:S 0.00021039
9 *165:A0 *38:10 0.000163352
10 *165:A0 *38:23 0.000126343
11 *165:A0 *40:12 0.000186025
12 *190:A *38:10 2.30292e-05
13 *37:10 *40:12 9.03784e-05
14 *37:10 *51:12 6.57448e-05
15 *37:19 *40:12 0.000131735
16 data_parallel_o[5] *37:19 0
17 *32:56 *37:10 7.88828e-05
*RES
1 *177:Q *37:10 42.5364 
2 *37:10 *164:A1 38 
3 *37:10 *37:19 1.90571 
4 *37:19 *190:A 39.5743 
5 *37:19 *165:A0 45.4779 
*END

*D_NET *38 0.00172102
*CONN
*I *191:A I *D sky130_fd_sc_hd__buf_4
*I *165:A1 I *D sky130_fd_sc_hd__mux2_1
*I *166:A0 I *D sky130_fd_sc_hd__mux2_1
*I *178:Q O *D sky130_fd_sc_hd__dfrtp_1
*CAP
1 *191:A 9.92738e-05
2 *165:A1 0.00017074
3 *166:A0 5.68645e-05
4 *178:Q 0.00015276
5 *38:23 0.000366687
6 *38:10 0.000306298
7 *166:A0 *166:A1 2.64616e-05
8 *166:A0 *41:72 9.41704e-05
9 *165:A0 *165:A1 0.000135037
10 *165:A0 *38:10 0.000163352
11 *165:A0 *38:23 0.000126343
12 *190:A *38:10 2.30292e-05
*RES
1 *178:Q *38:10 40.8793 
2 *38:10 *166:A0 39.0979 
3 *38:10 *38:23 16.9057 
4 *38:23 *165:A1 25.0507 
5 *38:23 *191:A 24.9471 
*END

*D_NET *39 0.00559344
*CONN
*I *166:A1 I *D sky130_fd_sc_hd__mux2_1
*I *192:A I *D sky130_fd_sc_hd__buf_4
*I *167:A0 I *D sky130_fd_sc_hd__mux2_1
*I *179:Q O *D sky130_fd_sc_hd__dfrtp_1
*CAP
1 *166:A1 9.02824e-05
2 *192:A 0
3 *167:A0 0
4 *179:Q 8.80442e-05
5 *39:33 0.000314846
6 *39:25 0.00168002
7 *39:18 0.000476587
8 *39:8 0.00183953
9 *166:A1 *41:72 1.03836e-05
10 *39:8 *179:RESET_B 6.17437e-06
11 *39:18 *179:RESET_B 0.00013404
12 *39:25 *168:RESET_B 0.000131432
13 *39:25 *41:72 0.000167277
14 *39:33 *165:S 0.000163352
15 *39:33 *46:10 0.000379403
16 *166:A0 *166:A1 2.64616e-05
17 *167:A1 *39:18 5.67058e-05
18 *168:D *39:25 1.83327e-05
19 *27:10 *39:18 0
20 *31:70 *39:25 1.0567e-05
*RES
1 *179:Q *39:8 24.8229 
2 *39:8 *39:18 36.7321 
3 *39:18 *167:A0 23 
4 *39:8 *39:25 17.2964 
5 *39:25 *39:33 37.6021 
6 *39:33 *192:A 23 
7 *39:25 *166:A1 24.0979 
*END

*D_NET *40 0.00653338
*CONN
*I *165:S I *D sky130_fd_sc_hd__mux2_1
*I *164:S I *D sky130_fd_sc_hd__mux2_1
*I *163:S I *D sky130_fd_sc_hd__mux2_1
*I *162:S I *D sky130_fd_sc_hd__mux2_1
*I *161:S I *D sky130_fd_sc_hd__mux2_1
*I *160:S I *D sky130_fd_sc_hd__mux2_1
*I *183:X O *D sky130_fd_sc_hd__clkbuf_2
*CAP
1 *165:S 0.000147477
2 *164:S 7.18388e-05
3 *163:S 0
4 *162:S 9.37921e-05
5 *161:S 8.563e-05
6 *160:S 0.000192524
7 *183:X 0.000135611
8 *40:22 0.000516794
9 *40:20 0.000562839
10 *40:18 0.000593982
11 *40:12 0.000650593
12 *40:8 0.000498266
13 *160:S *160:A0 9.84794e-05
14 *160:S *160:A1 5.97612e-05
15 *160:S *49:25 5.94125e-05
16 *161:S *161:A1 3.16784e-05
17 *162:S *162:A0 5.3304e-05
18 *162:S *162:A1 1.21972e-05
19 *164:S *164:A0 3.7122e-06
20 *165:S *168:RESET_B 0
21 *165:S *46:10 3.72639e-05
22 *40:8 *183:A 4.95081e-05
23 *40:8 *41:72 0.000136743
24 *40:12 *168:RESET_B 0
25 *40:12 *51:12 9.03784e-05
26 *40:18 *163:A0 1.83564e-05
27 *40:18 *164:A0 1.21972e-05
28 *40:18 *42:16 0
29 *40:18 *42:48 0
30 *40:18 *51:6 1.59094e-05
31 *40:18 *51:12 0.000350435
32 *40:20 *162:A0 3.70187e-05
33 *40:20 *163:A0 0.000171696
34 *40:20 *50:21 2.95125e-05
35 *40:22 *162:A0 0.000337002
36 *40:22 *49:25 9.26098e-05
37 data_parallel_o[4] *40:18 0
38 *165:A0 *165:S 0.00021039
39 *165:A0 *40:12 0.000186025
40 *172:CLK *160:S 0
41 *172:CLK *40:22 0
42 *3:12 *160:S 4.79641e-05
43 *4:10 *161:S 0.000180218
44 *5:10 *160:S 9.91895e-05
45 *32:25 *162:S 0.00017761
46 *32:29 *40:20 0
47 *32:29 *40:22 0
48 *32:56 *40:18 0
49 *37:10 *40:12 9.03784e-05
50 *37:19 *40:12 0.000131735
51 *39:33 *165:S 0.000163352
*RES
1 *183:X *40:8 40.5271 
2 *40:8 *40:12 20.4271 
3 *40:12 *40:18 21.8771 
4 *40:18 *40:20 5.77929 
5 *40:20 *40:22 5.77929 
6 *40:22 *160:S 42.6607 
7 *40:22 *161:S 40.0507 
8 *40:20 *162:S 40.0507 
9 *40:18 *163:S 38 
10 *40:12 *164:S 24.0979 
11 *40:8 *165:S 41.6664 
*END

*D_NET *41 0.00898486
*CONN
*I *183:A I *D sky130_fd_sc_hd__clkbuf_2
*I *166:S I *D sky130_fd_sc_hd__mux2_1
*I *157:A2 I *D sky130_fd_sc_hd__a21oi_1
*I *154:C I *D sky130_fd_sc_hd__and3_1
*I *156:B I *D sky130_fd_sc_hd__xor2_1
*I *167:S I *D sky130_fd_sc_hd__mux2_1
*I *184:X O *D sky130_fd_sc_hd__clkbuf_2
*CAP
1 *183:A 0.000101935
2 *166:S 0
3 *157:A2 0.000208115
4 *154:C 1.61061e-05
5 *156:B 4.7079e-05
6 *167:S 0.000168194
7 *184:X 0
8 *41:72 0.000318305
9 *41:66 0.00117261
10 *41:34 0.000631954
11 *41:21 0.00123111
12 *41:6 0.00098264
13 *41:4 0.000994379
14 *156:B *44:8 0.000359326
15 *157:A2 *178:RESET_B 0
16 *41:21 *170:RESET_B 5.86165e-05
17 *41:21 *178:RESET_B 0
18 *41:21 *179:RESET_B 9.28699e-05
19 *41:21 *42:31 8.12817e-05
20 *41:21 *44:10 0
21 *41:34 *178:RESET_B 0
22 *41:34 *43:18 0
23 *41:34 *44:8 0.000313255
24 *41:66 *168:RESET_B 1.58805e-05
25 *41:72 *168:RESET_B 9.67842e-05
26 *41:72 *46:10 0.000270682
27 *157:A1 *157:A2 4.93812e-05
28 *157:B1 *154:C 1.24376e-05
29 *157:B1 *157:A2 0.000102389
30 *166:A0 *41:72 9.41704e-05
31 *166:A1 *41:72 1.03836e-05
32 *177:D *41:66 0.000138708
33 *180:A *41:34 0.000108672
34 *181:A *157:A2 0
35 *25:8 *41:66 5.3304e-05
36 *29:10 *157:A2 5.68958e-05
37 *31:12 *41:21 6.70914e-05
38 *31:36 *41:21 7.06124e-05
39 *33:12 *156:B 0.000361027
40 *33:12 *41:21 0
41 *33:12 *41:34 0.000215671
42 *33:25 *157:A2 4.6318e-06
43 *33:25 *41:34 0.000123428
44 *34:6 *154:C 1.40314e-06
45 *39:25 *41:72 0.000167277
46 *40:8 *183:A 4.95081e-05
47 *40:8 *41:72 0.000136743
*RES
1 *184:X *41:4 23 
2 *41:4 *41:6 0.621429 
3 *41:6 *167:S 25.9 
4 *41:6 *41:21 46.3436 
5 *41:21 *156:B 26.9564 
6 *41:21 *41:34 25.4607 
7 *41:34 *154:C 38.2279 
8 *41:34 *157:A2 42.495 
9 *41:4 *41:66 46.6957 
10 *41:66 *41:72 6.98071 
11 *41:72 *166:S 23 
12 *41:72 *183:A 25.5479 
*END

*D_NET *42 0.00722764
*CONN
*I *168:RESET_B I *D sky130_fd_sc_hd__dfrtp_1
*I *176:RESET_B I *D sky130_fd_sc_hd__dfrtp_1
*I *179:RESET_B I *D sky130_fd_sc_hd__dfrtp_1
*I *171:RESET_B I *D sky130_fd_sc_hd__dfrtp_1
*I *170:RESET_B I *D sky130_fd_sc_hd__dfrtp_1
*I *177:RESET_B I *D sky130_fd_sc_hd__dfrtp_1
*I *185:X O *D sky130_fd_sc_hd__clkbuf_2
*CAP
1 *168:RESET_B 0.000343442
2 *176:RESET_B 5.2782e-05
3 *179:RESET_B 0.000207535
4 *171:RESET_B 0
5 *170:RESET_B 9.71784e-05
6 *177:RESET_B 0.00066206
7 *185:X 0.00050319
8 *42:48 0.000479774
9 *42:31 0.000393553
10 *42:22 0.00127934
11 *42:16 0.00123856
12 *168:RESET_B *51:12 0
13 *170:RESET_B *178:RESET_B 0
14 *177:RESET_B *185:A 5.50049e-05
15 *179:RESET_B *178:RESET_B 0
16 *42:31 *178:RESET_B 0
17 *42:48 *51:12 0
18 *165:S *168:RESET_B 0
19 *177:D *168:RESET_B 0.000117128
20 *177:D *177:RESET_B 5.67058e-05
21 *177:D *42:16 0
22 *177:D *42:48 0
23 *181:A *42:22 3.03856e-05
24 *24:8 *176:RESET_B 5.03619e-05
25 *24:8 *42:22 0.000362243
26 *26:10 *168:RESET_B 8.62876e-05
27 *29:16 *42:22 0.000395901
28 *31:56 *42:22 5.80851e-05
29 *32:56 *177:RESET_B 0.000141045
30 *39:8 *179:RESET_B 6.17437e-06
31 *39:18 *179:RESET_B 0.00013404
32 *39:25 *168:RESET_B 0.000131432
33 *40:12 *168:RESET_B 0
34 *40:18 *42:16 0
35 *40:18 *42:48 0
36 *41:21 *170:RESET_B 5.86165e-05
37 *41:21 *179:RESET_B 9.28699e-05
38 *41:21 *42:31 8.12817e-05
39 *41:66 *168:RESET_B 1.58805e-05
40 *41:72 *168:RESET_B 9.67842e-05
*RES
1 *185:X *177:RESET_B 30.8611 
2 *177:RESET_B *42:16 17.61 
3 *42:16 *42:22 44.9143 
4 *42:22 *170:RESET_B 17.2579 
5 *42:22 *42:31 3.66643 
6 *42:31 *171:RESET_B 15 
7 *42:31 *179:RESET_B 20.1682 
8 *42:16 *42:48 1.55357 
9 *42:48 *176:RESET_B 16.0254 
10 *42:48 *168:RESET_B 23.0475 
*END

*D_NET *43 0.00457967
*CONN
*I *185:A I *D sky130_fd_sc_hd__clkbuf_2
*I *173:RESET_B I *D sky130_fd_sc_hd__dfrtp_1
*I *175:RESET_B I *D sky130_fd_sc_hd__dfrtp_1
*I *174:RESET_B I *D sky130_fd_sc_hd__dfrtp_1
*I *172:RESET_B I *D sky130_fd_sc_hd__dfrtp_1
*I *169:RESET_B I *D sky130_fd_sc_hd__dfrtp_1
*I *186:X O *D sky130_fd_sc_hd__clkbuf_2
*CAP
1 *185:A 0.000142954
2 *173:RESET_B 3.96546e-05
3 *175:RESET_B 9.46841e-05
4 *174:RESET_B 0
5 *172:RESET_B 0.000203972
6 *169:RESET_B 0.000194637
7 *186:X 0
8 *43:26 0.000312714
9 *43:24 0.000433927
10 *43:18 0.000547563
11 *43:16 0.000814673
12 *43:4 0.000588948
13 *172:RESET_B *195:A 4.6318e-06
14 *172:RESET_B *49:14 7.91493e-05
15 *173:RESET_B *48:10 2.45549e-06
16 *175:RESET_B *197:A 0.000138135
17 *175:RESET_B *48:29 0.000398478
18 *175:RESET_B *50:21 1.31494e-05
19 *43:24 *48:10 9.38027e-05
20 *43:26 *195:A 6.32688e-05
21 *43:26 *48:10 1.83667e-05
22 *177:RESET_B *185:A 5.50049e-05
23 *180:A *43:16 2.93845e-05
24 *180:A *43:18 0
25 *181:A *185:A 4.85126e-05
26 *182:A *185:A 4.6318e-06
27 *182:A *43:18 0.000158914
28 *2:9 *43:18 0
29 *2:9 *43:24 0
30 *6:10 *175:RESET_B 4.93812e-05
31 *6:10 *43:18 0
32 *33:25 *169:RESET_B 3.53164e-05
33 *33:25 *43:16 1.33634e-05
34 *33:25 *43:18 0
35 *41:34 *43:18 0
*RES
1 *186:X *43:4 23 
2 *43:4 *169:RESET_B 3.42821 
3 *43:4 *43:16 19.9093 
4 *43:16 *43:18 6.13143 
5 *43:18 *43:24 5.26143 
6 *43:24 *43:26 2.25786 
7 *43:26 *172:RESET_B 18.3143 
8 *43:26 *174:RESET_B 15 
9 *43:24 *175:RESET_B 19.3604 
10 *43:18 *173:RESET_B 15.5489 
11 *43:16 *185:A 40.6514 
*END

*D_NET *44 0.00513759
*CONN
*I *178:RESET_B I *D sky130_fd_sc_hd__dfrtp_1
*I *186:A I *D sky130_fd_sc_hd__clkbuf_2
*I *188:X O *D sky130_fd_sc_hd__buf_1
*CAP
1 *178:RESET_B 0.00124855
2 *186:A 0
3 *188:X 0.000474447
4 *44:10 0.00134654
5 *44:8 0.000572436
6 *155:A *178:RESET_B 3.71369e-05
7 *155:B *178:RESET_B 0.000121821
8 *156:B *44:8 0.000359326
9 *157:A2 *178:RESET_B 0
10 *170:RESET_B *178:RESET_B 0
11 *178:D *178:RESET_B 0.000150642
12 *179:RESET_B *178:RESET_B 0
13 *180:A *178:RESET_B 6.07611e-06
14 *180:A *44:10 9.63918e-05
15 *16:14 *178:RESET_B 0.00015137
16 *17:10 *44:8 0.00010018
17 *28:10 *178:RESET_B 4.55577e-05
18 *31:70 *178:RESET_B 0
19 *32:68 *178:RESET_B 3.22467e-05
20 *33:12 *44:8 2.4754e-05
21 *33:12 *44:10 5.31444e-05
22 *35:12 *178:RESET_B 3.7122e-06
23 *41:21 *178:RESET_B 0
24 *41:21 *44:10 0
25 *41:34 *178:RESET_B 0
26 *41:34 *44:8 0.000313255
27 *42:31 *178:RESET_B 0
*RES
1 *188:X *44:8 48.6264 
2 *44:8 *44:10 2.61 
3 *44:10 *186:A 38 
4 *44:10 *178:RESET_B 39.8882 
*END

*D_NET *45 0.0011056
*CONN
*I *184:A I *D sky130_fd_sc_hd__clkbuf_2
*I *189:X O *D sky130_fd_sc_hd__clkbuf_1
*CAP
1 *184:A 0
2 *189:X 0.000536654
3 *45:10 0.000536654
4 *55:DIODE *45:10 3.22879e-05
*RES
1 *189:X *45:10 47.425 
2 *45:10 *184:A 38 
*END
