*SPEF "ieee 1481-1999"
*DESIGN "sipo"
*DATE "02:27:19 Saturday January 24, 2026"
*VENDOR "The OpenROAD Project"
*PROGRAM "OpenROAD"
*VERSION "edf00dff99f6c40d67a30c0e22a8191c5d2ed9d6"
*DESIGN_FLOW "NAME_SCOPE LOCAL" "PIN_CAP NONE"
*DIVIDER /
*DELIMITER :
*BUS_DELIMITER []
*T_UNIT 1 NS
*C_UNIT 1 PF
*R_UNIT 1 OHM
*L_UNIT 1 HENRY

*NAME_MAP
*1 byte_ready_o
*2 clk
*3 data_parallel_o[0]
*4 data_parallel_o[1]
*5 data_parallel_o[2]
*6 data_parallel_o[3]
*7 data_parallel_o[4]
*8 data_parallel_o[5]
*9 data_parallel_o[6]
*10 data_parallel_o[7]
*11 data_serial_i
*12 rst_n
*13 valid_serial_i
*16 _00_
*17 _01_
*18 _02_
*19 _03_
*20 _04_
*21 _05_
*22 _06_
*23 _07_
*24 _08_
*25 _09_
*26 _10_
*27 _11_
*28 _12_
*29 _13_
*30 clknet_0_clk
*31 clknet_1_0__leaf_clk
*32 clknet_1_1__leaf_clk
*33 count\[0\]
*34 count\[1\]
*35 count\[2\]
*36 net1
*37 net10
*38 net11
*39 net12
*40 net13
*41 net14
*42 net15
*43 net16
*44 net2
*45 net3
*46 net4
*47 net5
*48 net6
*49 net7
*50 net8
*51 net9
*52 ANTENNA_clkbuf_0_clk_A
*53 ANTENNA_input1_A
*54 ANTENNA_input2_A
*55 ANTENNA_input3_A
*56 FILLER_0_15
*57 FILLER_0_21
*58 FILLER_0_29
*59 FILLER_0_3
*60 FILLER_0_66
*61 FILLER_0_70
*62 FILLER_10_22
*63 FILLER_10_29
*64 FILLER_10_3
*65 FILLER_10_41
*66 FILLER_10_53
*67 FILLER_10_63
*68 FILLER_11_20
*69 FILLER_11_29
*70 FILLER_11_41
*71 FILLER_11_53
*72 FILLER_11_57
*73 FILLER_11_8
*74 FILLER_1_15
*75 FILLER_1_27
*76 FILLER_1_3
*77 FILLER_1_66
*78 FILLER_1_70
*79 FILLER_2_15
*80 FILLER_2_27
*81 FILLER_2_29
*82 FILLER_2_3
*83 FILLER_2_37
*84 FILLER_2_66
*85 FILLER_2_70
*86 FILLER_3_17
*87 FILLER_3_29
*88 FILLER_3_35
*89 FILLER_3_5
*90 FILLER_3_66
*91 FILLER_3_70
*92 FILLER_4_14
*93 FILLER_4_26
*94 FILLER_4_31
*95 FILLER_4_43
*96 FILLER_4_6
*97 FILLER_5_3
*98 FILLER_5_66
*99 FILLER_5_70
*100 FILLER_6_3
*101 FILLER_6_42
*102 FILLER_6_66
*103 FILLER_6_7
*104 FILLER_6_70
*105 FILLER_7_3
*106 FILLER_7_35
*107 FILLER_7_66
*108 FILLER_7_70
*109 FILLER_8_34
*110 FILLER_8_42
*111 FILLER_9_24
*112 FILLER_9_3
*113 FILLER_9_32
*114 FILLER_9_54
*115 FILLER_9_70
*116 PHY_EDGE_ROW_0_Left_12
*117 PHY_EDGE_ROW_0_Right_0
*118 PHY_EDGE_ROW_10_Left_22
*119 PHY_EDGE_ROW_10_Right_10
*120 PHY_EDGE_ROW_11_Left_23
*121 PHY_EDGE_ROW_11_Right_11
*122 PHY_EDGE_ROW_1_Left_13
*123 PHY_EDGE_ROW_1_Right_1
*124 PHY_EDGE_ROW_2_Left_14
*125 PHY_EDGE_ROW_2_Right_2
*126 PHY_EDGE_ROW_3_Left_15
*127 PHY_EDGE_ROW_3_Right_3
*128 PHY_EDGE_ROW_4_Left_16
*129 PHY_EDGE_ROW_4_Right_4
*130 PHY_EDGE_ROW_5_Left_17
*131 PHY_EDGE_ROW_5_Right_5
*132 PHY_EDGE_ROW_6_Left_18
*133 PHY_EDGE_ROW_6_Right_6
*134 PHY_EDGE_ROW_7_Left_19
*135 PHY_EDGE_ROW_7_Right_7
*136 PHY_EDGE_ROW_8_Left_20
*137 PHY_EDGE_ROW_8_Right_8
*138 PHY_EDGE_ROW_9_Left_21
*139 PHY_EDGE_ROW_9_Right_9
*140 TAP_TAPCELL_ROW_0_24
*141 TAP_TAPCELL_ROW_0_25
*142 TAP_TAPCELL_ROW_10_35
*143 TAP_TAPCELL_ROW_11_36
*144 TAP_TAPCELL_ROW_11_37
*145 TAP_TAPCELL_ROW_1_26
*146 TAP_TAPCELL_ROW_2_27
*147 TAP_TAPCELL_ROW_3_28
*148 TAP_TAPCELL_ROW_4_29
*149 TAP_TAPCELL_ROW_5_30
*150 TAP_TAPCELL_ROW_6_31
*151 TAP_TAPCELL_ROW_7_32
*152 TAP_TAPCELL_ROW_8_33
*153 TAP_TAPCELL_ROW_9_34
*154 _14_
*155 _15_
*156 _16_
*157 _17_
*158 _18_
*159 _19_
*160 _20_
*161 _21_
*162 _22_
*163 _23_
*164 _24_
*165 _25_
*166 _26_
*167 _27_
*168 _28_
*169 _29_
*170 _30_
*171 _31_
*172 _32_
*173 _33_
*174 _34_
*175 _35_
*176 _36_
*177 _37_
*178 _38_
*179 _39_
*180 clkbuf_0_clk
*181 clkbuf_1_0__f_clk
*182 clkbuf_1_1__f_clk
*183 fanout13
*184 fanout14
*185 fanout15
*186 fanout16
*187 input1
*188 input2
*189 input3
*190 output10
*191 output11
*192 output12
*193 output4
*194 output5
*195 output6
*196 output7
*197 output8
*198 output9

*PORTS
byte_ready_o O
clk I
data_parallel_o[0] O
data_parallel_o[1] O
data_parallel_o[2] O
data_parallel_o[3] O
data_parallel_o[4] O
data_parallel_o[5] O
data_parallel_o[6] O
data_parallel_o[7] O
data_serial_i I
rst_n I
valid_serial_i I

*D_NET *1 0.00139546
*CONN
*P byte_ready_o O
*I *193:X O *D sky130_fd_sc_hd__buf_4
*CAP
1 byte_ready_o 0.000697732
2 *193:X 0.000697732
3 byte_ready_o data_parallel_o[7] 0
*RES
1 *193:X byte_ready_o 24.4672 
*END

*D_NET *2 0.00356425
*CONN
*P clk I
*I *180:A I *D sky130_fd_sc_hd__clkbuf_16
*I *52:DIODE I *D sky130_fd_sc_hd__diode_2
*CAP
1 clk 0.00150602
2 *180:A 0.000150764
3 *52:DIODE 0
4 *2:9 0.00165678
5 *180:A *178:RESET_B 5.80706e-06
6 *180:A *33:25 1.92905e-05
7 *180:A *41:34 0.000104236
8 *180:A *43:16 2.89114e-05
9 *180:A *43:18 0
10 *180:A *44:10 9.24395e-05
11 *2:9 *160:A0 0
12 *2:9 *195:A 0
13 *2:9 *196:A 0
14 *2:9 *43:18 0
15 *2:9 *43:24 0
16 *2:9 *47:8 0
17 *2:9 *48:10 0
*RES
1 clk *2:9 19.5537 
2 *2:9 *52:DIODE 13.8 
3 *2:9 *180:A 17.8 
*END

*D_NET *3 0.00454296
*CONN
*P data_parallel_o[0] O
*I *194:X O *D sky130_fd_sc_hd__buf_4
*CAP
1 data_parallel_o[0] 0.00178835
2 *194:X 0.00178835
3 data_parallel_o[0] data_parallel_o[1] 2.39923e-05
4 data_parallel_o[0] data_parallel_o[2] 0.000145598
5 data_parallel_o[0] *160:A0 0.000140933
6 data_parallel_o[0] *160:A1 5.52302e-05
7 data_parallel_o[0] *160:S 4.72917e-05
8 data_parallel_o[0] *172:D 0.000101609
9 data_parallel_o[0] *194:A 0.000405089
10 data_parallel_o[0] *196:A 4.65258e-05
*RES
1 *194:X data_parallel_o[0] 42.6063 
*END

*D_NET *4 0.00324582
*CONN
*P data_parallel_o[1] O
*I *195:X O *D sky130_fd_sc_hd__buf_4
*CAP
1 data_parallel_o[1] 0.00105319
2 *195:X 0.00105319
3 data_parallel_o[1] data_parallel_o[2] 0
4 data_parallel_o[1] *160:A1 0
5 data_parallel_o[1] *161:S 0.00018077
6 data_parallel_o[1] *173:D 9.23918e-05
7 data_parallel_o[1] *195:A 0.000143652
8 data_parallel_o[1] *49:6 5.06672e-05
9 data_parallel_o[1] *49:25 0.000647975
10 data_parallel_o[0] data_parallel_o[1] 2.39923e-05
*RES
1 *195:X data_parallel_o[1] 36.73 
*END

*D_NET *5 0.00371403
*CONN
*P data_parallel_o[2] O
*I *196:X O *D sky130_fd_sc_hd__buf_4
*CAP
1 data_parallel_o[2] 0.00152794
2 *196:X 0.00152794
3 data_parallel_o[2] data_parallel_o[3] 0
4 data_parallel_o[2] *160:A0 1.39841e-05
5 data_parallel_o[2] *160:A1 0
6 data_parallel_o[2] *160:S 9.76689e-05
7 data_parallel_o[2] *172:D 0.000190694
8 data_parallel_o[2] *194:A 7.09928e-05
9 data_parallel_o[2] *196:A 0.00013921
10 data_parallel_o[2] *48:29 0
11 data_parallel_o[0] data_parallel_o[2] 0.000145598
12 data_parallel_o[1] data_parallel_o[2] 0
*RES
1 *196:X data_parallel_o[2] 36.3933 
*END

*D_NET *6 0.0025592
*CONN
*P data_parallel_o[3] O
*I *197:X O *D sky130_fd_sc_hd__buf_4
*CAP
1 data_parallel_o[3] 0.00119114
2 *197:X 0.00119114
3 data_parallel_o[3] data_parallel_o[4] 0
4 data_parallel_o[3] *173:D 0
5 data_parallel_o[3] *175:RESET_B 4.73286e-05
6 data_parallel_o[3] *197:A 0.000100685
7 data_parallel_o[3] *32:29 0
8 data_parallel_o[3] *43:18 0
9 data_parallel_o[3] *50:6 2.89016e-05
10 data_parallel_o[2] data_parallel_o[3] 0
*RES
1 *197:X data_parallel_o[3] 25.1911 
*END

*D_NET *7 0.00174839
*CONN
*P data_parallel_o[4] O
*I *198:X O *D sky130_fd_sc_hd__buf_4
*CAP
1 data_parallel_o[4] 0.000874195
2 *198:X 0.000874195
3 data_parallel_o[4] data_parallel_o[5] 0
4 data_parallel_o[4] *40:18 0
5 data_parallel_o[3] data_parallel_o[4] 0
*RES
1 *198:X data_parallel_o[4] 20.3308 
*END

*D_NET *8 0.000575251
*CONN
*P data_parallel_o[5] O
*I *190:X O *D sky130_fd_sc_hd__buf_4
*CAP
1 data_parallel_o[5] 0.000287625
2 *190:X 0.000287625
3 data_parallel_o[5] data_parallel_o[6] 0
4 data_parallel_o[5] *37:19 0
5 data_parallel_o[4] data_parallel_o[5] 0
*RES
1 *190:X data_parallel_o[5] 18.5706 
*END

*D_NET *9 0.000592995
*CONN
*P data_parallel_o[6] O
*I *191:X O *D sky130_fd_sc_hd__buf_4
*CAP
1 data_parallel_o[6] 0.000296497
2 *191:X 0.000296497
3 data_parallel_o[6] data_parallel_o[7] 0
4 data_parallel_o[5] data_parallel_o[6] 0
*RES
1 *191:X data_parallel_o[6] 18.5706 
*END

*D_NET *10 0.000667209
*CONN
*P data_parallel_o[7] O
*I *192:X O *D sky130_fd_sc_hd__buf_4
*CAP
1 data_parallel_o[7] 0.000333604
2 *192:X 0.000333604
3 byte_ready_o data_parallel_o[7] 0
4 data_parallel_o[6] data_parallel_o[7] 0
*RES
1 *192:X data_parallel_o[7] 19.1777 
*END

*D_NET *11 0.000714723
*CONN
*P data_serial_i I
*I *53:DIODE I *D sky130_fd_sc_hd__diode_2
*I *187:A I *D sky130_fd_sc_hd__clkbuf_1
*CAP
1 data_serial_i 0.000245895
2 *53:DIODE 5.58906e-05
3 *187:A 0
4 *11:13 0.000301786
5 *53:DIODE *179:CLK 0.00010096
6 *11:13 *179:CLK 1.01912e-05
*RES
1 data_serial_i *11:13 9.59007 
2 *11:13 *187:A 9.3 
3 *11:13 *53:DIODE 10.6571 
*END

*D_NET *12 0.000653435
*CONN
*P rst_n I
*I *188:A I *D sky130_fd_sc_hd__buf_1
*I *54:DIODE I *D sky130_fd_sc_hd__diode_2
*CAP
1 rst_n 0.00021575
2 *188:A 0.000110967
3 *54:DIODE 0
4 *12:9 0.000326717
*RES
1 rst_n *12:9 4.32285 
2 *12:9 *54:DIODE 13.8 
3 *12:9 *188:A 15.7464 
*END

*D_NET *13 0.00113532
*CONN
*P valid_serial_i I
*I *55:DIODE I *D sky130_fd_sc_hd__diode_2
*I *189:A I *D sky130_fd_sc_hd__clkbuf_1
*CAP
1 valid_serial_i 0.000484934
2 *55:DIODE 6.67901e-05
3 *189:A 0
4 *13:13 0.000551725
5 *55:DIODE *184:A 3.18676e-05
*RES
1 valid_serial_i *13:13 14.1436 
2 *13:13 *189:A 9.3 
3 *13:13 *55:DIODE 10.6571 
*END

*D_NET *16 0.00092293
*CONN
*I *168:D I *D sky130_fd_sc_hd__dfrtp_1
*I *155:X O *D sky130_fd_sc_hd__and2_1
*CAP
1 *168:D 0.00032672
2 *155:X 0.00032672
3 *168:D *168:CLK 0.000104495
4 *168:D *178:RESET_B 0.000146689
5 *168:D *39:25 1.83053e-05
*RES
1 *155:X *168:D 33.0286 
*END

*D_NET *17 0.00042317
*CONN
*I *169:D I *D sky130_fd_sc_hd__dfrtp_1
*I *156:X O *D sky130_fd_sc_hd__xor2_1
*CAP
1 *169:D 0.000161105
2 *156:X 0.000161105
3 *169:D *44:10 0.00010096
*RES
1 *156:X *169:D 30.1893 
*END

*D_NET *18 0.000476985
*CONN
*I *170:D I *D sky130_fd_sc_hd__dfrtp_1
*I *158:Y O *D sky130_fd_sc_hd__nor2_1
*CAP
1 *170:D 0.000184716
2 *158:Y 0.000184716
3 *170:D *169:CLK 3.18676e-05
4 *170:D *31:12 7.56856e-05
*RES
1 *158:Y *170:D 30.3188 
*END

*D_NET *19 0.000509946
*CONN
*I *171:D I *D sky130_fd_sc_hd__dfrtp_1
*I *159:X O *D sky130_fd_sc_hd__xor2_1
*CAP
1 *171:D 0.000216085
2 *159:X 0.000216085
3 *171:D *159:A 0
4 *171:D *179:CLK 6.05161e-06
5 *171:D *31:12 0
6 *171:D *31:36 7.17235e-05
*RES
1 *159:X *171:D 31.2071 
*END

*D_NET *20 0.000419381
*CONN
*I *172:D I *D sky130_fd_sc_hd__dfrtp_1
*I *160:X O *D sky130_fd_sc_hd__mux2_1
*CAP
1 *172:D 6.35396e-05
2 *160:X 6.35396e-05
3 data_parallel_o[0] *172:D 0.000101609
4 data_parallel_o[2] *172:D 0.000190694
*RES
1 *160:X *172:D 21.3321 
*END

*D_NET *21 0.00119643
*CONN
*I *173:D I *D sky130_fd_sc_hd__dfrtp_1
*I *161:X O *D sky130_fd_sc_hd__mux2_1
*CAP
1 *173:D 0.000415092
2 *161:X 0.000415092
3 *173:D *174:D 0.000273858
4 *173:D *32:29 0
5 data_parallel_o[1] *173:D 9.23918e-05
6 data_parallel_o[3] *173:D 0
*RES
1 *161:X *173:D 34.7964 
*END

*D_NET *22 0.00102554
*CONN
*I *174:D I *D sky130_fd_sc_hd__dfrtp_1
*I *162:X O *D sky130_fd_sc_hd__mux2_1
*CAP
1 *174:D 0.000303394
2 *162:X 0.000303394
3 *174:D *32:25 4.47537e-05
4 *174:D *32:29 0.000100143
5 *173:D *174:D 0.000273858
*RES
1 *162:X *174:D 33.5464 
*END

*D_NET *23 0.00130863
*CONN
*I *175:D I *D sky130_fd_sc_hd__dfrtp_1
*I *163:X O *D sky130_fd_sc_hd__mux2_1
*CAP
1 *175:D 0.000319719
2 *163:X 0.000319719
3 *175:D *162:A0 2.72449e-05
4 *175:D *163:A0 0.000269379
5 *175:D *175:CLK 5.5782e-05
6 *175:D *32:8 0.00010142
7 *175:D *32:56 2.1527e-05
8 *175:D *50:21 0.00019384
*RES
1 *163:X *175:D 35.4571 
*END

*D_NET *24 0.00112178
*CONN
*I *176:D I *D sky130_fd_sc_hd__dfrtp_1
*I *164:X O *D sky130_fd_sc_hd__mux2_1
*CAP
1 *176:D 0.000324796
2 *164:X 0.000324796
3 *176:D *176:RESET_B 4.96155e-05
4 *176:D *181:A 2.89016e-05
5 *176:D *42:22 0.000353497
6 *176:D *51:6 4.01768e-05
*RES
1 *164:X *176:D 26.5464 
*END

*D_NET *25 0.00167136
*CONN
*I *177:D I *D sky130_fd_sc_hd__dfrtp_1
*I *165:X O *D sky130_fd_sc_hd__mux2_1
*CAP
1 *177:D 0.0006449
2 *165:X 0.0006449
3 *177:D *168:RESET_B 0.000116497
4 *177:D *177:RESET_B 5.71472e-05
5 *177:D *178:CLK 0
6 *177:D *32:56 2.89016e-05
7 *177:D *41:72 0.000179018
8 *177:D *42:16 0
9 *177:D *42:48 0
*RES
1 *165:X *177:D 39.4393 
*END

*D_NET *26 0.000995479
*CONN
*I *178:D I *D sky130_fd_sc_hd__dfrtp_1
*I *166:X O *D sky130_fd_sc_hd__mux2_1
*CAP
1 *178:D 0.000345468
2 *166:X 0.000345468
3 *178:D *168:RESET_B 7.83659e-05
4 *178:D *178:RESET_B 0.000148403
5 *178:D *193:A 7.77751e-05
*RES
1 *166:X *178:D 32.6402 
*END

*D_NET *27 0.000407836
*CONN
*I *179:D I *D sky130_fd_sc_hd__dfrtp_1
*I *167:X O *D sky130_fd_sc_hd__mux2_1
*CAP
1 *179:D 0.00012655
2 *167:X 0.00012655
3 *179:D *167:A0 0
4 *179:D *167:A1 0.000154737
*RES
1 *167:X *179:D 29.8857 
*END

*D_NET *28 0.00301688
*CONN
*I *155:B I *D sky130_fd_sc_hd__and2_1
*I *158:A I *D sky130_fd_sc_hd__nor2_1
*I *159:B I *D sky130_fd_sc_hd__xor2_1
*I *154:X O *D sky130_fd_sc_hd__and3_1
*CAP
1 *155:B 0.000145162
2 *158:A 0.000244551
3 *159:B 0
4 *154:X 0.000115132
5 *28:14 0.000400008
6 *28:10 0.000415752
7 *155:B *168:CLK 0
8 *155:B *178:RESET_B 0.000121924
9 *158:A *158:B 0.000110377
10 *28:10 *158:B 4.78056e-05
11 *28:10 *178:RESET_B 4.62539e-05
12 *28:10 *34:6 5.52238e-05
13 *28:14 *158:B 0.000744458
14 *28:14 *31:56 0.000570233
*RES
1 *154:X *28:10 16.2821 
2 *28:10 *28:14 11.6071 
3 *28:14 *159:B 9.3 
4 *28:14 *158:A 13.8714 
5 *28:10 *155:B 16.8893 
*END

*D_NET *29 0.00255328
*CONN
*I *158:B I *D sky130_fd_sc_hd__nor2_1
*I *157:Y O *D sky130_fd_sc_hd__a21oi_1
*CAP
1 *158:B 0.000576931
2 *157:Y 0.000576931
3 *158:B *157:A2 5.45307e-05
4 *158:B *31:56 4.43256e-05
5 *158:B *42:22 0.000397924
6 *158:A *158:B 0.000110377
7 *28:10 *158:B 4.78056e-05
8 *28:14 *158:B 0.000744458
*RES
1 *157:Y *158:B 41.0107 
*END

*D_NET *30 0.0023905
*CONN
*I *181:A I *D sky130_fd_sc_hd__clkbuf_16
*I *182:A I *D sky130_fd_sc_hd__clkbuf_16
*I *180:X O *D sky130_fd_sc_hd__clkbuf_16
*CAP
1 *181:A 0.000431716
2 *182:A 0.000425562
3 *180:X 0.000157208
4 *30:8 0.00101449
5 *181:A *157:A2 0
6 *181:A *185:A 4.66203e-05
7 *181:A *31:56 9.83388e-05
8 *181:A *42:22 3.10985e-05
9 *182:A *185:A 4.46186e-06
10 *182:A *43:18 0.000152108
11 *176:D *181:A 2.89016e-05
*RES
1 *180:X *30:8 15.5679 
2 *30:8 *182:A 21.9071 
3 *30:8 *181:A 21.0679 
*END

*D_NET *31 0.00521375
*CONN
*I *176:CLK I *D sky130_fd_sc_hd__dfrtp_1
*I *168:CLK I *D sky130_fd_sc_hd__dfrtp_1
*I *171:CLK I *D sky130_fd_sc_hd__dfrtp_1
*I *179:CLK I *D sky130_fd_sc_hd__dfrtp_1
*I *170:CLK I *D sky130_fd_sc_hd__dfrtp_1
*I *169:CLK I *D sky130_fd_sc_hd__dfrtp_1
*I *181:X O *D sky130_fd_sc_hd__clkbuf_16
*CAP
1 *176:CLK 0
2 *168:CLK 0.00051053
3 *171:CLK 0
4 *179:CLK 0.00018033
5 *170:CLK 0
6 *169:CLK 0.000191711
7 *181:X 0
8 *31:56 0.000845494
9 *31:36 0.000477084
10 *31:12 0.000515941
11 *31:6 0.000620984
12 *31:4 0.000334964
13 *168:CLK *178:RESET_B 0
14 *168:CLK *39:25 1.13963e-05
15 *179:CLK *167:A1 0.000129868
16 *31:12 *159:A 0
17 *31:12 *41:21 6.72808e-05
18 *31:36 *159:A 8.55687e-05
19 *31:36 *41:21 7.04538e-05
20 *31:56 *42:22 5.82711e-05
21 *53:DIODE *179:CLK 0.00010096
22 *155:B *168:CLK 0
23 *158:B *31:56 4.43256e-05
24 *168:D *168:CLK 0.000104495
25 *170:D *169:CLK 3.18676e-05
26 *170:D *31:12 7.56856e-05
27 *171:D *179:CLK 6.05161e-06
28 *171:D *31:12 0
29 *171:D *31:36 7.17235e-05
30 *181:A *31:56 9.83388e-05
31 *11:13 *179:CLK 1.01912e-05
32 *28:14 *31:56 0.000570233
*RES
1 *181:X *31:4 9.3 
2 *31:4 *31:6 4.5 
3 *31:6 *31:12 10.875 
4 *31:12 *169:CLK 21.8 
5 *31:12 *170:CLK 9.3 
6 *31:6 *31:36 10.875 
7 *31:36 *179:CLK 22.3179 
8 *31:36 *171:CLK 9.3 
9 *31:4 *31:56 7.92857 
10 *31:56 *168:CLK 25.9429 
11 *31:56 *176:CLK 9.3 
*END

*D_NET *32 0.00473968
*CONN
*I *177:CLK I *D sky130_fd_sc_hd__dfrtp_1
*I *178:CLK I *D sky130_fd_sc_hd__dfrtp_1
*I *173:CLK I *D sky130_fd_sc_hd__dfrtp_1
*I *174:CLK I *D sky130_fd_sc_hd__dfrtp_1
*I *172:CLK I *D sky130_fd_sc_hd__dfrtp_1
*I *175:CLK I *D sky130_fd_sc_hd__dfrtp_1
*I *182:X O *D sky130_fd_sc_hd__clkbuf_16
*CAP
1 *177:CLK 0
2 *178:CLK 0.000318661
3 *173:CLK 0
4 *174:CLK 0
5 *172:CLK 0.000193858
6 *175:CLK 8.77254e-05
7 *182:X 0
8 *32:56 0.000982095
9 *32:29 0.000447633
10 *32:25 0.000550714
11 *32:8 0.000550784
12 *32:6 0.000829554
13 *172:CLK *160:S 0
14 *172:CLK *40:22 0
15 *178:CLK *178:RESET_B 3.13687e-05
16 *32:25 *162:S 0.000177821
17 *32:29 *40:20 0
18 *32:29 *40:22 0
19 *32:56 *163:A0 0
20 *32:56 *177:RESET_B 0.000139174
21 *32:56 *37:10 7.77652e-05
22 *32:56 *40:18 0
23 *32:56 *51:12 0
24 data_parallel_o[3] *32:29 0
25 *173:D *32:29 0
26 *174:D *32:25 4.47537e-05
27 *174:D *32:29 0.000100143
28 *175:D *175:CLK 5.5782e-05
29 *175:D *32:8 0.00010142
30 *175:D *32:56 2.1527e-05
31 *177:D *178:CLK 0
32 *177:D *32:56 2.89016e-05
*RES
1 *182:X *32:6 13.8 
2 *32:6 *32:8 3.76786 
3 *32:8 *175:CLK 15.7464 
4 *32:8 *32:25 9.58929 
5 *32:25 *32:29 9.48214 
6 *32:29 *172:CLK 16.3536 
7 *32:29 *174:CLK 13.8 
8 *32:25 *173:CLK 9.3 
9 *32:6 *32:56 16.8036 
10 *32:56 *178:CLK 23.7643 
11 *32:56 *177:CLK 9.3 
*END

*D_NET *33 0.00259939
*CONN
*I *157:A1 I *D sky130_fd_sc_hd__a21oi_1
*I *154:A I *D sky130_fd_sc_hd__and3_1
*I *156:A I *D sky130_fd_sc_hd__xor2_1
*I *169:Q O *D sky130_fd_sc_hd__dfrtp_1
*CAP
1 *157:A1 6.89005e-05
2 *154:A 0
3 *156:A 0.000332291
4 *169:Q 0
5 *33:25 0.00049219
6 *33:4 0.000755581
7 *156:A *156:B 0.000363837
8 *156:A *41:21 0
9 *156:A *41:34 0.000217141
10 *156:A *44:10 7.5514e-05
11 *157:A1 *157:A2 4.73286e-05
12 *157:A1 *157:B1 5.49544e-05
13 *33:25 *157:A2 4.46186e-06
14 *33:25 *169:RESET_B 3.5566e-05
15 *33:25 *41:34 0.000118339
16 *33:25 *43:16 1.3997e-05
17 *33:25 *43:18 0
18 *180:A *33:25 1.92905e-05
*RES
1 *169:Q *33:4 9.3 
2 *33:4 *156:A 26.1214 
3 *33:4 *33:25 15.2679 
4 *33:25 *154:A 9.3 
5 *33:25 *157:A1 10.6571 
*END

*D_NET *34 0.000744084
*CONN
*I *154:B I *D sky130_fd_sc_hd__and3_1
*I *157:B1 I *D sky130_fd_sc_hd__a21oi_1
*I *170:Q O *D sky130_fd_sc_hd__dfrtp_1
*CAP
1 *154:B 0
2 *157:B1 0.000110475
3 *170:Q 0.000149549
4 *34:6 0.000260023
5 *157:B1 *154:C 1.24368e-05
6 *157:B1 *157:A2 9.99853e-05
7 *34:6 *154:C 1.43625e-06
8 *157:A1 *157:B1 5.49544e-05
9 *28:10 *34:6 5.52238e-05
*RES
1 *170:Q *34:6 11.0679 
2 *34:6 *157:B1 11.6929 
3 *34:6 *154:B 9.3 
*END

*D_NET *35 0.00162875
*CONN
*I *155:A I *D sky130_fd_sc_hd__and2_1
*I *159:A I *D sky130_fd_sc_hd__xor2_1
*I *171:Q O *D sky130_fd_sc_hd__dfrtp_1
*CAP
1 *155:A 0.000101768
2 *159:A 0.000649613
3 *171:Q 0
4 *35:4 0.000751381
5 *155:A *178:RESET_B 3.67257e-05
6 *159:A *178:RESET_B 3.69047e-06
7 *171:D *159:A 0
8 *31:12 *159:A 0
9 *31:36 *159:A 8.55687e-05
*RES
1 *171:Q *35:4 9.3 
2 *35:4 *159:A 26.2286 
3 *35:4 *155:A 10.9786 
*END

*D_NET *36 0.00108733
*CONN
*I *167:A1 I *D sky130_fd_sc_hd__mux2_1
*I *187:X O *D sky130_fd_sc_hd__clkbuf_1
*CAP
1 *167:A1 0.00037279
2 *187:X 0.00037279
3 *167:A1 *167:A0 5.71472e-05
4 *179:CLK *167:A1 0.000129868
5 *179:D *167:A1 0.000154737
*RES
1 *187:X *167:A1 35.1893 
*END

*D_NET *37 0.00232259
*CONN
*I *165:A0 I *D sky130_fd_sc_hd__mux2_1
*I *190:A I *D sky130_fd_sc_hd__buf_4
*I *164:A1 I *D sky130_fd_sc_hd__mux2_1
*I *177:Q O *D sky130_fd_sc_hd__dfrtp_1
*CAP
1 *165:A0 0.000255141
2 *190:A 7.6671e-05
3 *164:A1 0
4 *177:Q 0.000203939
5 *37:19 0.000396844
6 *37:10 0.000268971
7 *165:A0 *165:A1 0.000135028
8 *165:A0 *165:S 0.000191403
9 *165:A0 *38:10 0.000148189
10 *165:A0 *38:23 0.000114759
11 *165:A0 *40:12 0.000167691
12 *190:A *38:10 2.27416e-05
13 *37:10 *40:12 8.15095e-05
14 *37:10 *51:12 6.30292e-05
15 *37:19 *40:12 0.000118903
16 data_parallel_o[5] *37:19 0
17 *32:56 *37:10 7.77652e-05
*RES
1 *177:Q *37:10 17.7107 
2 *37:10 *164:A1 13.8 
3 *37:10 *37:19 1.64286 
4 *37:19 *190:A 15.1571 
5 *37:19 *165:A0 20.2464 
*END

*D_NET *38 0.00153038
*CONN
*I *191:A I *D sky130_fd_sc_hd__buf_4
*I *165:A1 I *D sky130_fd_sc_hd__mux2_1
*I *166:A0 I *D sky130_fd_sc_hd__mux2_1
*I *178:Q O *D sky130_fd_sc_hd__dfrtp_1
*CAP
1 *191:A 9.33553e-05
2 *165:A1 0.000149644
3 *166:A0 4.37595e-05
4 *178:Q 0.000130067
5 *38:23 0.000320955
6 *38:10 0.000251783
7 *166:A0 *166:A1 2.59355e-05
8 *166:A0 *41:72 9.41642e-05
9 *165:A0 *165:A1 0.000135028
10 *165:A0 *38:10 0.000148189
11 *165:A0 *38:23 0.000114759
12 *190:A *38:10 2.27416e-05
*RES
1 *178:Q *38:10 16.2821 
2 *38:10 *166:A0 14.7464 
3 *38:10 *38:23 6.14286 
4 *38:23 *165:A1 11.0679 
5 *38:23 *191:A 10.9786 
*END

*D_NET *39 0.00526776
*CONN
*I *166:A1 I *D sky130_fd_sc_hd__mux2_1
*I *192:A I *D sky130_fd_sc_hd__buf_4
*I *167:A0 I *D sky130_fd_sc_hd__mux2_1
*I *179:Q O *D sky130_fd_sc_hd__dfrtp_1
*CAP
1 *166:A1 7.92347e-05
2 *192:A 0.000276032
3 *167:A0 0.000447632
4 *179:Q 8.09176e-05
5 *39:25 0.00157974
6 *39:8 0.00175302
7 *166:A1 *41:72 1.02821e-05
8 *167:A0 *179:RESET_B 0.000134714
9 *192:A *165:S 0.000148189
10 *192:A *193:A 0.000342488
11 *39:8 *179:RESET_B 6.05161e-06
12 *39:25 *168:RESET_B 0.000131765
13 *39:25 *41:72 0.000164913
14 *166:A0 *166:A1 2.59355e-05
15 *167:A1 *167:A0 5.71472e-05
16 *168:CLK *39:25 1.13963e-05
17 *168:D *39:25 1.83053e-05
18 *179:D *167:A0 0
*RES
1 *179:Q *39:8 10.8714 
2 *39:8 *167:A0 24.1036 
3 *39:8 *39:25 14.9107 
4 *39:25 *192:A 24.8536 
5 *39:25 *166:A1 10.2464 
*END

*D_NET *40 0.00578789
*CONN
*I *165:S I *D sky130_fd_sc_hd__mux2_1
*I *164:S I *D sky130_fd_sc_hd__mux2_1
*I *163:S I *D sky130_fd_sc_hd__mux2_1
*I *162:S I *D sky130_fd_sc_hd__mux2_1
*I *161:S I *D sky130_fd_sc_hd__mux2_1
*I *160:S I *D sky130_fd_sc_hd__mux2_1
*I *183:X O *D sky130_fd_sc_hd__clkbuf_2
*CAP
1 *165:S 0.000115932
2 *164:S 6.1969e-05
3 *163:S 0
4 *162:S 7.34718e-05
5 *161:S 6.91383e-05
6 *160:S 0.000156288
7 *183:X 0.000118025
8 *40:22 0.00042872
9 *40:20 0.000478423
10 *40:18 0.000512655
11 *40:12 0.00055484
12 *40:8 0.00041583
13 *160:S *160:A0 9.90367e-05
14 *160:S *160:A1 5.74562e-05
15 *160:S *49:25 5.41794e-05
16 *161:S *161:A1 3.14163e-05
17 *162:S *162:A0 5.33005e-05
18 *162:S *162:A1 1.21258e-05
19 *164:S *164:A0 3.69047e-06
20 *165:S *168:RESET_B 0
21 *165:S *193:A 3.57844e-05
22 *40:8 *183:A 4.88637e-05
23 *40:8 *41:72 0.000136958
24 *40:12 *168:RESET_B 0
25 *40:12 *51:12 8.15095e-05
26 *40:18 *163:A0 1.76039e-05
27 *40:18 *164:A0 1.21258e-05
28 *40:18 *42:16 0
29 *40:18 *42:48 0
30 *40:18 *51:6 1.58163e-05
31 *40:18 *51:12 0.000316745
32 *40:20 *162:A0 3.34366e-05
33 *40:20 *163:A0 0.000164954
34 *40:20 *50:21 2.82057e-05
35 *40:22 *162:A0 0.000304915
36 *40:22 *49:25 8.32242e-05
37 data_parallel_o[0] *160:S 4.72917e-05
38 data_parallel_o[1] *161:S 0.00018077
39 data_parallel_o[2] *160:S 9.76689e-05
40 data_parallel_o[4] *40:18 0
41 *165:A0 *165:S 0.000191403
42 *165:A0 *40:12 0.000167691
43 *172:CLK *160:S 0
44 *172:CLK *40:22 0
45 *192:A *165:S 0.000148189
46 *32:25 *162:S 0.000177821
47 *32:29 *40:20 0
48 *32:29 *40:22 0
49 *32:56 *40:18 0
50 *37:10 *40:12 8.15095e-05
51 *37:19 *40:12 0.000118903
*RES
1 *183:X *40:8 15.9786 
2 *40:8 *40:12 9.17857 
3 *40:12 *40:18 10.4286 
4 *40:18 *40:20 4.98214 
5 *40:20 *40:22 4.98214 
6 *40:22 *160:S 17.8179 
7 *40:22 *161:S 15.5679 
8 *40:20 *162:S 15.5679 
9 *40:18 *163:S 13.8 
10 *40:12 *164:S 10.2464 
11 *40:8 *165:S 16.9607 
*END

*D_NET *41 0.0083376
*CONN
*I *183:A I *D sky130_fd_sc_hd__clkbuf_2
*I *166:S I *D sky130_fd_sc_hd__mux2_1
*I *157:A2 I *D sky130_fd_sc_hd__a21oi_1
*I *154:C I *D sky130_fd_sc_hd__and3_1
*I *156:B I *D sky130_fd_sc_hd__xor2_1
*I *167:S I *D sky130_fd_sc_hd__mux2_1
*I *184:X O *D sky130_fd_sc_hd__clkbuf_2
*CAP
1 *183:A 9.6839e-05
2 *166:S 0
3 *157:A2 0.000186174
4 *154:C 1.31703e-05
5 *156:B 4.2742e-05
6 *167:S 0.000158121
7 *184:X 0
8 *41:72 0.00117141
9 *41:34 0.000551207
10 *41:21 0.00106136
11 *41:6 0.000859089
12 *41:4 0.00110878
13 *156:B *44:10 0.000361914
14 *157:A2 *178:RESET_B 0
15 *41:21 *170:RESET_B 5.80217e-05
16 *41:21 *178:RESET_B 0
17 *41:21 *179:RESET_B 9.1799e-05
18 *41:21 *42:31 8.13563e-05
19 *41:21 *44:10 0
20 *41:34 *178:RESET_B 0
21 *41:34 *43:18 0
22 *41:34 *44:10 0.000315165
23 *41:72 *168:RESET_B 0.000112418
24 *41:72 *193:A 0.000272371
25 *156:A *156:B 0.000363837
26 *156:A *41:21 0
27 *156:A *41:34 0.000217141
28 *157:A1 *157:A2 4.73286e-05
29 *157:B1 *154:C 1.24368e-05
30 *157:B1 *157:A2 9.99853e-05
31 *158:B *157:A2 5.45307e-05
32 *166:A0 *41:72 9.41642e-05
33 *166:A1 *41:72 1.02821e-05
34 *177:D *41:72 0.000179018
35 *180:A *41:34 0.000104236
36 *181:A *157:A2 0
37 *31:12 *41:21 6.72808e-05
38 *31:36 *41:21 7.04538e-05
39 *33:25 *157:A2 4.46186e-06
40 *33:25 *41:34 0.000118339
41 *34:6 *154:C 1.43625e-06
42 *39:25 *41:72 0.000164913
43 *40:8 *183:A 4.88637e-05
44 *40:8 *41:72 0.000136958
*RES
1 *184:X *41:4 9.3 
2 *41:4 *41:6 0.535714 
3 *41:6 *167:S 11.8 
4 *41:6 *41:21 23.0893 
5 *41:21 *156:B 12.7107 
6 *41:21 *41:34 13.5179 
7 *41:34 *154:C 13.9964 
8 *41:34 *157:A2 17.675 
9 *41:4 *41:72 29.4107 
10 *41:72 *166:S 9.3 
11 *41:72 *183:A 11.4964 
*END

*D_NET *42 0.0067367
*CONN
*I *168:RESET_B I *D sky130_fd_sc_hd__dfrtp_1
*I *176:RESET_B I *D sky130_fd_sc_hd__dfrtp_1
*I *179:RESET_B I *D sky130_fd_sc_hd__dfrtp_1
*I *171:RESET_B I *D sky130_fd_sc_hd__dfrtp_1
*I *170:RESET_B I *D sky130_fd_sc_hd__dfrtp_1
*I *177:RESET_B I *D sky130_fd_sc_hd__dfrtp_1
*I *185:X O *D sky130_fd_sc_hd__clkbuf_2
*CAP
1 *168:RESET_B 0.000291345
2 *176:RESET_B 4.71781e-05
3 *179:RESET_B 0.000181653
4 *171:RESET_B 0
5 *170:RESET_B 8.45643e-05
6 *177:RESET_B 0.000618363
7 *185:X 0.000479881
8 *42:48 0.000412897
9 *42:31 0.000337524
10 *42:22 0.00117897
11 *42:16 0.00115139
12 *168:RESET_B *51:12 0
13 *170:RESET_B *178:RESET_B 0
14 *177:RESET_B *185:A 5.52238e-05
15 *179:RESET_B *178:RESET_B 0
16 *42:31 *178:RESET_B 0
17 *42:48 *51:12 0
18 *158:B *42:22 0.000397924
19 *165:S *168:RESET_B 0
20 *167:A0 *179:RESET_B 0.000134714
21 *176:D *176:RESET_B 4.96155e-05
22 *176:D *42:22 0.000353497
23 *177:D *168:RESET_B 0.000116497
24 *177:D *177:RESET_B 5.71472e-05
25 *177:D *42:16 0
26 *177:D *42:48 0
27 *178:D *168:RESET_B 7.83659e-05
28 *181:A *42:22 3.10985e-05
29 *31:56 *42:22 5.82711e-05
30 *32:56 *177:RESET_B 0.000139174
31 *39:8 *179:RESET_B 6.05161e-06
32 *39:25 *168:RESET_B 0.000131765
33 *40:12 *168:RESET_B 0
34 *40:18 *42:16 0
35 *40:18 *42:48 0
36 *41:21 *170:RESET_B 5.80217e-05
37 *41:21 *179:RESET_B 9.1799e-05
38 *41:21 *42:31 8.13563e-05
39 *41:72 *168:RESET_B 0.000112418
*RES
1 *185:X *177:RESET_B 16.0768 
2 *177:RESET_B *42:16 6.75 
3 *42:16 *42:22 21.8571 
4 *42:22 *170:RESET_B 6.44643 
5 *42:22 *42:31 3.16071 
6 *42:31 *171:RESET_B 4.5 
7 *42:31 *179:RESET_B 8.95536 
8 *42:16 *42:48 1.33929 
9 *42:48 *176:RESET_B 5.38393 
10 *42:48 *168:RESET_B 11.4375 
*END

*D_NET *43 0.00420398
*CONN
*I *185:A I *D sky130_fd_sc_hd__clkbuf_2
*I *173:RESET_B I *D sky130_fd_sc_hd__dfrtp_1
*I *175:RESET_B I *D sky130_fd_sc_hd__dfrtp_1
*I *174:RESET_B I *D sky130_fd_sc_hd__dfrtp_1
*I *172:RESET_B I *D sky130_fd_sc_hd__dfrtp_1
*I *169:RESET_B I *D sky130_fd_sc_hd__dfrtp_1
*I *186:X O *D sky130_fd_sc_hd__clkbuf_2
*CAP
1 *185:A 0.000120177
2 *173:RESET_B 3.47948e-05
3 *175:RESET_B 8.56708e-05
4 *174:RESET_B 0
5 *172:RESET_B 0.00017423
6 *169:RESET_B 0.00017852
7 *186:X 0
8 *43:26 0.000266211
9 *43:24 0.000388157
10 *43:18 0.000491126
11 *43:16 0.000735361
12 *43:4 0.000547878
13 *172:RESET_B *195:A 4.46186e-06
14 *172:RESET_B *196:A 7.6021e-05
15 *173:RESET_B *48:10 2.51343e-06
16 *175:RESET_B *197:A 0.000138307
17 *175:RESET_B *48:29 0.000395004
18 *175:RESET_B *50:21 1.31111e-05
19 *43:24 *48:10 8.98801e-05
20 *43:26 *195:A 6.07232e-05
21 *43:26 *48:10 1.76135e-05
22 data_parallel_o[3] *175:RESET_B 4.73286e-05
23 data_parallel_o[3] *43:18 0
24 *177:RESET_B *185:A 5.52238e-05
25 *180:A *43:16 2.89114e-05
26 *180:A *43:18 0
27 *181:A *185:A 4.66203e-05
28 *182:A *185:A 4.46186e-06
29 *182:A *43:18 0.000152108
30 *2:9 *43:18 0
31 *2:9 *43:24 0
32 *33:25 *169:RESET_B 3.5566e-05
33 *33:25 *43:16 1.3997e-05
34 *33:25 *43:18 0
35 *41:34 *43:18 0
*RES
1 *186:X *43:4 9.3 
2 *43:4 *169:RESET_B 2.95536 
3 *43:4 *43:16 8.73214 
4 *43:16 *43:18 5.28571 
5 *43:18 *43:24 4.53571 
6 *43:24 *43:26 1.94643 
7 *43:26 *172:RESET_B 7.35714 
8 *43:26 *174:RESET_B 4.5 
9 *43:24 *175:RESET_B 8.25893 
10 *43:18 *173:RESET_B 4.97321 
11 *43:16 *185:A 16.0857 
*END

*D_NET *44 0.00478218
*CONN
*I *178:RESET_B I *D sky130_fd_sc_hd__dfrtp_1
*I *186:A I *D sky130_fd_sc_hd__clkbuf_2
*I *188:X O *D sky130_fd_sc_hd__buf_1
*CAP
1 *178:RESET_B 0.00112263
2 *186:A 0
3 *188:X 0.000525031
4 *44:10 0.00164767
5 *155:A *178:RESET_B 3.67257e-05
6 *155:B *178:RESET_B 0.000121924
7 *156:A *44:10 7.5514e-05
8 *156:B *44:10 0.000361914
9 *157:A2 *178:RESET_B 0
10 *159:A *178:RESET_B 3.69047e-06
11 *168:CLK *178:RESET_B 0
12 *168:D *178:RESET_B 0.000146689
13 *169:D *44:10 0.00010096
14 *170:RESET_B *178:RESET_B 0
15 *178:CLK *178:RESET_B 3.13687e-05
16 *178:D *178:RESET_B 0.000148403
17 *179:RESET_B *178:RESET_B 0
18 *180:A *178:RESET_B 5.80706e-06
19 *180:A *44:10 9.24395e-05
20 *28:10 *178:RESET_B 4.62539e-05
21 *41:21 *178:RESET_B 0
22 *41:21 *44:10 0
23 *41:34 *178:RESET_B 0
24 *41:34 *44:10 0.000315165
25 *42:31 *178:RESET_B 0
*RES
1 *188:X *44:10 25.2107 
2 *44:10 *186:A 13.8 
3 *44:10 *178:RESET_B 25.9554 
*END

*D_NET *45 0.00103941
*CONN
*I *184:A I *D sky130_fd_sc_hd__clkbuf_2
*I *189:X O *D sky130_fd_sc_hd__clkbuf_1
*CAP
1 *184:A 0.000503771
2 *189:X 0.000503771
3 *55:DIODE *184:A 3.18676e-05
*RES
1 *189:X *184:A 35.725 
*END

*D_NET *46 0.00133112
*CONN
*I *193:A I *D sky130_fd_sc_hd__buf_4
*I *168:Q O *D sky130_fd_sc_hd__dfrtp_1
*CAP
1 *193:A 0.000301348
2 *168:Q 0.000301348
3 *165:S *193:A 3.57844e-05
4 *178:D *193:A 7.77751e-05
5 *192:A *193:A 0.000342488
6 *41:72 *193:A 0.000272371
*RES
1 *168:Q *193:A 35.475 
*END

*D_NET *47 0.00322631
*CONN
*I *194:A I *D sky130_fd_sc_hd__buf_4
*I *160:A0 I *D sky130_fd_sc_hd__mux2_1
*I *172:Q O *D sky130_fd_sc_hd__dfrtp_1
*CAP
1 *194:A 0.000129195
2 *160:A0 0.00102023
3 *172:Q 4.86917e-05
4 *47:8 0.00119811
5 *160:A0 *160:A1 1.87955e-05
6 *194:A *196:A 5.49489e-05
7 *47:8 *196:A 2.6304e-05
8 data_parallel_o[0] *160:A0 0.000140933
9 data_parallel_o[0] *194:A 0.000405089
10 data_parallel_o[2] *160:A0 1.39841e-05
11 data_parallel_o[2] *194:A 7.09928e-05
12 *160:S *160:A0 9.90367e-05
13 *2:9 *160:A0 0
14 *2:9 *47:8 0
*RES
1 *172:Q *47:8 14.8357 
2 *47:8 *160:A0 36.3 
3 *47:8 *194:A 18.05 
*END

*D_NET *48 0.00386412
*CONN
*I *161:A0 I *D sky130_fd_sc_hd__mux2_1
*I *160:A1 I *D sky130_fd_sc_hd__mux2_1