*SPEF "ieee 1481-1999"
*DESIGN "sync_fifo"
*DATE "02:20:46 Saturday January 24, 2026"
*VENDOR "The OpenROAD Project"
*PROGRAM "OpenROAD"
*VERSION "edf00dff99f6c40d67a30c0e22a8191c5d2ed9d6"
*DESIGN_FLOW "NAME_SCOPE LOCAL" "PIN_CAP NONE"
*DIVIDER /
*DELIMITER :
*BUS_DELIMITER []
*T_UNIT 1 NS
*C_UNIT 1 PF
*R_UNIT 1 OHM
*L_UNIT 1 HENRY

*NAME_MAP
*1 clk
*2 empty_o
*3 full_o
*4 rd_data_o[0]
*5 rd_data_o[10]
*6 rd_data_o[11]
*7 rd_data_o[12]
*8 rd_data_o[13]
*9 rd_data_o[14]
*10 rd_data_o[15]
*11 rd_data_o[1]
*12 rd_data_o[2]
*13 rd_data_o[3]
*14 rd_data_o[4]
*15 rd_data_o[5]
*16 rd_data_o[6]
*17 rd_data_o[7]
*18 rd_data_o[8]
*19 rd_data_o[9]
*20 rd_en_i
*21 rst_n
*24 wr_data_i[0]
*25 wr_data_i[10]
*26 wr_data_i[11]
*27 wr_data_i[12]
*28 wr_data_i[13]
*29 wr_data_i[14]
*30 wr_data_i[15]
*31 wr_data_i[1]
*32 wr_data_i[2]
*33 wr_data_i[3]
*34 wr_data_i[4]
*35 wr_data_i[5]
*36 wr_data_i[6]
*37 wr_data_i[7]
*38 wr_data_i[8]
*39 wr_data_i[9]
*40 wr_en_i
*41 _0000_
*42 _0001_
*43 _0002_
*44 _0003_
*45 _0004_
*46 _0005_
*47 _0006_
*48 _0007_
*49 _0008_
*50 _0009_
*51 _0010_
*52 _0011_
*53 _0012_
*54 _0013_
*55 _0014_
*56 _0015_
*57 _0016_
*58 _0017_
*59 _0018_
*60 _0019_
*61 _0020_
*62 _0021_
*63 _0022_
*64 _0023_
*65 _0024_
*66 _0025_
*67 _0026_
*68 _0027_
*69 _0028_
*70 _0029_
*71 _0030_
*72 _0031_
*73 _0032_
*74 _0033_
*75 _0034_
*76 _0035_
*77 _0036_
*78 _0037_
*79 _0038_
*80 _0039_
*81 _0040_
*82 _0041_
*83 _0042_
*84 _0043_
*85 _0044_
*86 _0045_
*87 _0046_
*88 _0047_
*89 _0048_
*90 _0049_
*91 _0050_
*92 _0051_
*93 _0052_
*94 _0053_
*95 _0054_
*96 _0055_
*97 _0056_
*98 _0057_
*99 _0058_
*100 _0059_
*101 _0060_
*102 _0061_
*103 _0062_
*104 _0063_
*105 _0064_
*106 _0065_
*107 _0066_
*108 _0067_
*109 _0068_
*110 _0069_
*111 _0070_
*112 _0071_
*113 _0072_
*114 _0073_
*115 _0074_
*116 _0075_
*117 _0076_
*118 _0077_
*119 _0078_
*120 _0079_
*121 _0080_
*122 _0081_
*123 _0082_
*124 _0083_
*125 _0084_
*126 _0085_
*127 _0086_
*128 _0087_
*129 _0088_
*130 _0089_
*131 _0090_
*132 _0091_
*133 _0092_
*134 _0093_
*135 _0094_
*136 _0095_
*137 _0096_
*138 _0097_
*139 _0098_
*140 _0099_
*141 _0100_
*142 _0101_
*143 _0102_
*144 _0103_
*145 _0104_
*146 _0105_
*147 _0106_
*148 _0107_
*149 _0108_
*150 _0109_
*151 _0110_
*152 _0111_
*153 _0112_
*154 _0113_
*155 _0114_
*156 _0115_
*157 _0116_
*158 _0117_
*159 _0118_
*160 _0119_
*161 _0120_
*162 _0121_
*163 _0122_
*164 _0123_
*165 _0124_
*166 _0125_
*167 _0126_
*168 _0127_
*169 _0128_
*170 _0129_
*171 _0130_
*172 _0131_
*173 _0132_
*174 _0133_
*175 _0134_
*176 _0135_
*177 _0136_
*178 _0137_
*179 _0138_
*180 _0139_
*181 _0140_
*182 _0141_
*183 _0142_
*184 _0143_
*185 _0144_
*186 _0145_
*187 _0146_
*188 _0147_
*189 _0148_
*190 _0149_
*191 _0150_
*192 _0151_
*193 _0152_
*194 _0153_
*195 _0154_
*196 _0155_
*197 _0156_
*198 _0157_
*199 _0158_
*200 _0159_
*201 _0160_
*202 _0161_
*203 _0162_
*204 _0163_
*205 _0164_
*206 _0165_
*207 _0166_
*208 _0167_
*209 _0168_
*210 _0169_
*211 _0170_
*212 _0171_
*213 _0172_
*214 _0173_
*215 _0174_
*216 _0175_
*217 _0176_
*218 _0177_
*219 _0178_
*220 _0179_
*221 _0180_
*222 _0181_
*223 _0182_
*224 _0183_
*225 _0184_
*226 _0185_
*227 _0186_
*228 _0187_
*229 _0188_
*230 _0189_
*231 _0190_
*232 _0191_
*233 _0192_
*234 _0193_
*235 _0194_
*236 _0195_
*237 _0196_
*238 _0197_
*239 _0198_
*240 _0199_
*241 _0200_
*242 _0201_
*243 _0202_
*244 _0203_
*245 _0204_
*246 _0205_
*247 _0206_
*248 _0207_
*249 _0208_
*250 _0209_
*251 _0210_
*252 _0211_
*253 _0212_
*254 _0213_
*255 _0214_
*256 _0215_
*257 _0216_
*258 _0217_
*259 _0218_
*260 _0219_
*261 _0220_
*262 _0221_
*263 _0222_
*264 _0223_
*265 _0224_
*266 _0225_
*267 _0226_
*268 _0227_
*269 _0228_
*270 _0229_
*271 _0230_
*272 _0231_
*273 _0232_
*274 _0233_
*275 _0234_
*276 _0235_
*277 _0236_
*278 _0237_
*279 _0238_
*280 _0239_
*281 _0240_
*282 _0241_
*283 _0242_
*284 _0243_
*285 _0244_
*286 _0245_
*287 _0246_
*288 _0247_
*289 _0248_
*290 _0249_
*291 _0250_
*292 _0251_
*293 _0252_
*294 _0253_
*295 _0254_
*296 _0255_
*297 _0256_
*298 _0257_
*299 _0258_
*300 _0259_
*301 _0260_
*302 _0261_
*303 _0262_
*304 _0263_
*305 _0264_
*306 _0265_
*307 _0266_
*308 _0267_
*309 _0268_
*310 _0269_
*311 _0270_
*312 _0271_
*313 _0272_
*314 _0273_
*315 _0274_
*316 _0275_
*317 _0276_
*318 _0277_
*319 _0278_
*320 _0279_
*321 _0280_
*322 _0281_
*323 _0282_
*324 _0283_
*325 _0284_
*326 _0285_
*327 _0286_
*328 _0287_
*329 _0288_
*330 _0289_
*331 _0290_
*332 _0291_
*333 _0292_
*334 _0293_
*335 _0294_
*336 _0295_
*337 _0296_
*338 _0297_
*339 _0298_
*340 _0299_
*341 _0300_
*342 _0301_
*343 _0302_
*344 _0303_
*345 _0304_
*346 _0305_
*347 _0306_
*348 _0307_
*349 _0308_
*350 _0309_
*351 _0310_
*352 _0311_
*353 _0312_
*354 _0313_
*355 _0314_
*356 _0315_
*357 _0316_
*358 _0317_
*359 _0318_
*360 _0319_
*361 _0320_
*362 _0321_
*363 _0322_
*364 _0323_
*365 _0324_
*366 _0325_
*367 _0326_
*368 _0327_
*369 _0328_
*370 _0329_
*371 _0330_
*372 _0331_
*373 _0332_
*374 _0333_
*375 _0334_
*376 _0335_
*377 _0336_
*378 _0337_
*379 _0338_
*380 _0339_
*381 _0340_
*382 _0341_
*383 _0342_
*384 _0343_
*385 _0344_
*386 _0345_
*387 _0346_
*388 _0347_
*389 _0348_
*390 _0349_
*391 _0350_
*392 _0351_
*393 _0352_
*394 _0353_
*395 _0354_
*396 _0355_
*397 _0356_
*398 _0357_
*399 _0358_
*400 _0359_
*401 _0360_
*402 _0361_
*403 _0362_
*404 _0363_
*405 _0364_
*406 _0365_
*407 _0366_
*408 _0367_
*409 _0368_
*410 _0369_
*411 _0370_
*412 _0371_
*413 _0372_
*414 _0373_
*415 _0374_
*416 _0375_
*417 _0376_
*418 _0377_
*419 _0378_
*420 _0379_
*421 _0380_
*422 _0381_
*423 _0382_
*424 _0383_
*425 _0384_
*426 _0385_
*427 _0386_
*428 _0387_
*429 _0388_
*430 _0389_
*431 _0390_
*432 _0391_
*433 _0392_
*434 _0393_
*435 _0394_
*436 _0395_
*437 _0396_
*438 _0397_
*439 _0398_
*440 _0399_
*441 _0400_
*442 _0401_
*443 _0402_
*444 _0403_
*445 _0404_
*446 _0405_
*447 _0406_
*448 _0407_
*449 _0408_
*450 _0409_
*451 _0410_
*452 _0411_
*453 _0412_
*454 _0413_
*455 _0414_
*456 _0415_
*457 _0416_
*458 _0417_
*459 _0418_
*460 _0419_
*461 _0420_
*462 _0421_
*463 _0422_
*464 _0423_
*465 _0424_
*466 _0425_
*467 _0426_
*468 _0427_
*469 _0428_
*470 _0429_
*471 _0430_
*472 _0431_
*473 _0432_
*474 _0433_
*475 _0434_
*476 _0435_
*477 _0436_
*478 _0437_
*479 _0438_
*480 _0439_
*481 _0440_
*482 _0441_
*483 _0442_
*484 _0443_
*485 _0444_
*486 _0445_
*487 _0446_
*488 _0447_
*489 _0448_
*490 _0449_
*491 _0450_
*492 _0451_
*493 _0452_
*494 _0453_
*495 _0454_
*496 _0455_
*497 _0456_
*498 _0457_
*499 _0458_
*500 _0459_
*501 _0460_
*502 _0461_
*503 _0462_
*504 _0463_
*505 _0464_
*506 _0465_
*507 _0466_
*508 _0467_
*509 _0468_
*510 _0469_
*511 _0470_
*512 _0471_
*513 _0472_
*514 _0473_
*515 _0474_
*516 _0475_
*517 _0476_
*518 _0477_
*519 _0478_
*520 _0479_
*521 _0480_
*522 _0481_
*523 _0482_
*524 _0483_
*525 _0484_
*526 _0485_
*527 _0486_
*528 _0487_
*529 _0488_
*530 _0489_
*531 _0490_
*532 _0491_
*533 _0492_
*534 _0493_
*535 _0494_
*536 _0495_
*537 _0496_
*538 _0497_
*539 _0498_
*540 _0499_
*541 _0500_
*542 _0501_
*543 _0502_
*544 _0503_
*545 _0504_
*546 _0505_
*547 _0506_
*548 _0507_
*549 _0508_
*550 _0509_
*551 _0510_
*552 _0511_
*553 _0512_
*554 _0513_
*555 _0514_
*556 _0515_
*557 _0516_
*558 _0517_
*559 _0518_
*560 clknet_0_clk
*561 clknet_2_0__leaf_clk
*562 clknet_2_1__leaf_clk
*563 clknet_2_2__leaf_clk
*564 clknet_2_3__leaf_clk
*565 clknet_leaf_0_clk
*566 clknet_leaf_10_clk
*567 clknet_leaf_11_clk
*568 clknet_leaf_12_clk
*569 clknet_leaf_13_clk
*570 clknet_leaf_14_clk
*571 clknet_leaf_15_clk
*572 clknet_leaf_16_clk
*573 clknet_leaf_17_clk
*574 clknet_leaf_18_clk
*575 clknet_leaf_19_clk
*576 clknet_leaf_1_clk
*577 clknet_leaf_20_clk
*578 clknet_leaf_21_clk
*579 clknet_leaf_22_clk
*580 clknet_leaf_23_clk
*581 clknet_leaf_24_clk
*582 clknet_leaf_25_clk
*583 clknet_leaf_26_clk
*584 clknet_leaf_27_clk
*585 clknet_leaf_28_clk
*586 clknet_leaf_2_clk
*587 clknet_leaf_3_clk
*588 clknet_leaf_4_clk
*589 clknet_leaf_5_clk
*590 clknet_leaf_6_clk
*591 clknet_leaf_7_clk
*592 clknet_leaf_8_clk
*593 clknet_leaf_9_clk
*594 count\[0\]
*595 count\[1\]
*596 count\[2\]
*597 count\[3\]
*598 count\[4\]
*599 mem\[0\]\[0\]
*600 mem\[0\]\[10\]
*601 mem\[0\]\[11\]
*602 mem\[0\]\[12\]
*603 mem\[0\]\[13\]
*604 mem\[0\]\[14\]
*605 mem\[0\]\[15\]
*606 mem\[0\]\[1\]
*607 mem\[0\]\[2\]
*608 mem\[0\]\[3\]
*609 mem\[0\]\[4\]
*610 mem\[0\]\[5\]
*611 mem\[0\]\[6\]
*612 mem\[0\]\[7\]
*613 mem\[0\]\[8\]
*614 mem\[0\]\[9\]
*615 mem\[10\]\[0\]
*616 mem\[10\]\[10\]
*617 mem\[10\]\[11\]
*618 mem\[10\]\[12\]
*619 mem\[10\]\[13\]
*620 mem\[10\]\[14\]
*621 mem\[10\]\[15\]
*622 mem\[10\]\[1\]
*623 mem\[10\]\[2\]
*624 mem\[10\]\[3\]
*625 mem\[10\]\[4\]
*626 mem\[10\]\[5\]
*627 mem\[10\]\[6\]
*628 mem\[10\]\[7\]
*629 mem\[10\]\[8\]
*630 mem\[10\]\[9\]
*631 mem\[11\]\[0\]
*632 mem\[11\]\[10\]
*633 mem\[11\]\[11\]
*634 mem\[11\]\[12\]
*635 mem\[11\]\[13\]
*636 mem\[11\]\[14\]
*637 mem\[11\]\[15\]
*638 mem\[11\]\[1\]
*639 mem\[11\]\[2\]
*640 mem\[11\]\[3\]
*641 mem\[11\]\[4\]
*642 mem\[11\]\[5\]
*643 mem\[11\]\[6\]
*644 mem\[11\]\[7\]
*645 mem\[11\]\[8\]
*646 mem\[11\]\[9\]
*647 mem\[12\]\[0\]
*648 mem\[12\]\[10\]
*649 mem\[12\]\[11\]
*650 mem\[12\]\[12\]
*651 mem\[12\]\[13\]
*652 mem\[12\]\[14\]
*653 mem\[12\]\[15\]
*654 mem\[12\]\[1\]
*655 mem\[12\]\[2\]
*656 mem\[12\]\[3\]
*657 mem\[12\]\[4\]
*658 mem\[12\]\[5\]
*659 mem\[12\]\[6\]
*660 mem\[12\]\[7\]
*661 mem\[12\]\[8\]
*662 mem\[12\]\[9\]
*663 mem\[13\]\[0\]
*664 mem\[13\]\[10\]
*665 mem\[13\]\[11\]
*666 mem\[13\]\[12\]
*667 mem\[13\]\[13\]
*668 mem\[13\]\[14\]
*669 mem\[13\]\[15\]
*670 mem\[13\]\[1\]
*671 mem\[13\]\[2\]
*672 mem\[13\]\[3\]
*673 mem\[13\]\[4\]
*674 mem\[13\]\[5\]
*675 mem\[13\]\[6\]
*676 mem\[13\]\[7\]
*677 mem\[13\]\[8\]
*678 mem\[13\]\[9\]
*679 mem\[14\]\[0\]
*680 mem\[14\]\[10\]
*681 mem\[14\]\[11\]
*682 mem\[14\]\[12\]
*683 mem\[14\]\[13\]
*684 mem\[14\]\[14\]
*685 mem\[14\]\[15\]
*686 mem\[14\]\[1\]
*687 mem\[14\]\[2\]
*688 mem\[14\]\[3\]
*689 mem\[14\]\[4\]
*690 mem\[14\]\[5\]
*691 mem\[14\]\[6\]
*692 mem\[14\]\[7\]
*693 mem\[14\]\[8\]
*694 mem\[14\]\[9\]
*695 mem\[15\]\[0\]
*696 mem\[15\]\[10\]
*697 mem\[15\]\[11\]
*698 mem\[15\]\[12\]
*699 mem\[15\]\[13\]
*700 mem\[15\]\[14\]
*701 mem\[15\]\[15\]
*702 mem\[15\]\[1\]
*703 mem\[15\]\[2\]
*704 mem\[15\]\[3\]
*705 mem\[15\]\[4\]
*706 mem\[15\]\[5\]
*707 mem\[15\]\[6\]
*708 mem\[15\]\[7\]
*709 mem\[15\]\[8\]
*710 mem\[15\]\[9\]
*711 mem\[1\]\[0\]
*712 mem\[1\]\[10\]
*713 mem\[1\]\[11\]
*714 mem\[1\]\[12\]
*715 mem\[1\]\[13\]
*716 mem\[1\]\[14\]
*717 mem\[1\]\[15\]
*718 mem\[1\]\[1\]
*719 mem\[1\]\[2\]
*720 mem\[1\]\[3\]
*721 mem\[1\]\[4\]
*722 mem\[1\]\[5\]
*723 mem\[1\]\[6\]
*724 mem\[1\]\[7\]
*725 mem\[1\]\[8\]
*726 mem\[1\]\[9\]
*727 mem\[2\]\[0\]
*728 mem\[2\]\[10\]
*729 mem\[2\]\[11\]
*730 mem\[2\]\[12\]
*731 mem\[2\]\[13\]
*732 mem\[2\]\[14\]
*733 mem\[2\]\[15\]
*734 mem\[2\]\[1\]
*735 mem\[2\]\[2\]
*736 mem\[2\]\[3\]
*737 mem\[2\]\[4\]
*738 mem\[2\]\[5\]
*739 mem\[2\]\[6\]
*740 mem\[2\]\[7\]
*741 mem\[2\]\[8\]
*742 mem\[2\]\[9\]
*743 mem\[3\]\[0\]
*744 mem\[3\]\[10\]
*745 mem\[3\]\[11\]
*746 mem\[3\]\[12\]
*747 mem\[3\]\[13\]
*748 mem\[3\]\[14\]
*749 mem\[3\]\[15\]
*750 mem\[3\]\[1\]
*751 mem\[3\]\[2\]
*752 mem\[3\]\[3\]
*753 mem\[3\]\[4\]
*754 mem\[3\]\[5\]
*755 mem\[3\]\[6\]
*756 mem\[3\]\[7\]
*757 mem\[3\]\[8\]
*758 mem\[3\]\[9\]
*759 mem\[4\]\[0\]
*760 mem\[4\]\[10\]
*761 mem\[4\]\[11\]
*762 mem\[4\]\[12\]
*763 mem\[4\]\[13\]
*764 mem\[4\]\[14\]
*765 mem\[4\]\[15\]
*766 mem\[4\]\[1\]
*767 mem\[4\]\[2\]
*768 mem\[4\]\[3\]
*769 mem\[4\]\[4\]
*770 mem\[4\]\[5\]
*771 mem\[4\]\[6\]
*772 mem\[4\]\[7\]
*773 mem\[4\]\[8\]
*774 mem\[4\]\[9\]
*775 mem\[5\]\[0\]
*776 mem\[5\]\[10\]
*777 mem\[5\]\[11\]
*778 mem\[5\]\[12\]
*779 mem\[5\]\[13\]
*780 mem\[5\]\[14\]
*781 mem\[5\]\[15\]
*782 mem\[5\]\[1\]
*783 mem\[5\]\[2\]
*784 mem\[5\]\[3\]
*785 mem\[5\]\[4\]
*786 mem\[5\]\[5\]
*787 mem\[5\]\[6\]
*788 mem\[5\]\[7\]
*789 mem\[5\]\[8\]
*790 mem\[5\]\[9\]
*791 mem\[6\]\[0\]
*792 mem\[6\]\[10\]
*793 mem\[6\]\[11\]
*794 mem\[6\]\[12\]
*795 mem\[6\]\[13\]
*796 mem\[6\]\[14\]
*797 mem\[6\]\[15\]
*798 mem\[6\]\[1\]
*799 mem\[6\]\[2\]
*800 mem\[6\]\[3\]
*801 mem\[6\]\[4\]
*802 mem\[6\]\[5\]
*803 mem\[6\]\[6\]
*804 mem\[6\]\[7\]
*805 mem\[6\]\[8\]
*806 mem\[6\]\[9\]
*807 mem\[7\]\[0\]
*808 mem\[7\]\[10\]
*809 mem\[7\]\[11\]
*810 mem\[7\]\[12\]
*811 mem\[7\]\[13\]
*812 mem\[7\]\[14\]
*813 mem\[7\]\[15\]
*814 mem\[7\]\[1\]
*815 mem\[7\]\[2\]
*816 mem\[7\]\[3\]
*817 mem\[7\]\[4\]
*818 mem\[7\]\[5\]
*819 mem\[7\]\[6\]
*820 mem\[7\]\[7\]
*821 mem\[7\]\[8\]
*822 mem\[7\]\[9\]
*823 mem\[8\]\[0\]
*824 mem\[8\]\[10\]
*825 mem\[8\]\[11\]
*826 mem\[8\]\[12\]
*827 mem\[8\]\[13\]
*828 mem\[8\]\[14\]
*829 mem\[8\]\[15\]
*830 mem\[8\]\[1\]
*831 mem\[8\]\[2\]
*832 mem\[8\]\[3\]
*833 mem\[8\]\[4\]
*834 mem\[8\]\[5\]
*835 mem\[8\]\[6\]
*836 mem\[8\]\[7\]
*837 mem\[8\]\[8\]
*838 mem\[8\]\[9\]
*839 mem\[9\]\[0\]
*840 mem\[9\]\[10\]
*841 mem\[9\]\[11\]
*842 mem\[9\]\[12\]
*843 mem\[9\]\[13\]
*844 mem\[9\]\[14\]
*845 mem\[9\]\[15\]
*846 mem\[9\]\[1\]
*847 mem\[9\]\[2\]
*848 mem\[9\]\[3\]
*849 mem\[9\]\[4\]
*850 mem\[9\]\[5\]
*851 mem\[9\]\[6\]
*852 mem\[9\]\[7\]
*853 mem\[9\]\[8\]
*854 mem\[9\]\[9\]
*855 net1
*856 net10
*857 net100
*858 net101
*859 net102
*860 net103
*861 net104
*862 net105
*863 net106
*864 net107
*865 net108
*866 net109
*867 net11
*868 net110
*869 net111
*870 net112
*871 net113
*872 net114
*873 net115
*874 net116
*875 net117
*876 net118
*877 net119
*878 net12
*879 net120
*880 net121
*881 net122
*882 net123
*883 net124
*884 net125
*885 net126
*886 net127
*887 net128
*888 net129
*889 net13
*890 net130
*891 net131
*892 net132
*893 net133
*894 net134
*895 net135
*896 net136
*897 net137
*898 net138
*899 net139
*900 net14
*901 net140
*902 net141
*903 net142
*904 net143
*905 net144
*906 net145
*907 net146
*908 net147
*909 net148
*910 net149
*911 net15
*912 net150
*913 net151
*914 net152
*915 net153
*916 net154
*917 net155
*918 net156
*919 net157
*920 net158
*921 net159
*922 net16
*923 net160
*924 net161
*925 net162
*926 net163
*927 net164
*928 net165
*929 net166
*930 net167
*931 net168
*932 net169
*933 net17
*934 net170
*935 net171
*936 net172
*937 net173
*938 net174
*939 net175
*940 net176
*941 net177
*942 net178
*943 net179
*944 net18
*945 net180
*946 net181
*947 net182
*948 net183
*949 net184
*950 net185
*951 net186
*952 net187
*953 net188
*954 net189
*955 net19
*956 net190
*957 net191
*958 net192
*959 net193
*960 net194
*961 net195
*962 net196
*963 net197
*964 net198
*965 net199
*966 net2
*967 net20
*968 net200
*969 net201
*970 net202
*971 net203
*972 net204
*973 net205
*974 net206
*975 net207
*976 net208
*977 net209
*978 net21
*979 net210
*980 net211
*981 net212
*982 net213
*983 net214
*984 net215
*985 net216
*986 net217
*987 net218
*988 net219
*989 net22
*990 net220
*991 net221
*992 net222
*993 net223
*994 net224
*995 net225
*996 net226
*997 net227
*998 net228
*999 net229
*1000 net23
*1001 net230
*1002 net231
*1003 net232
*1004 net233
*1005 net234
*1006 net235
*1007 net236
*1008 net237
*1009 net238
*1010 net239
*1011 net24
*1012 net240
*1013 net241
*1014 net242
*1015 net243
*1016 net25
*1017 net26
*1018 net27
*1019 net28
*1020 net29
*1021 net3
*1022 net30
*1023 net31
*1024 net32
*1025 net33
*1026 net34
*1027 net35
*1028 net36
*1029 net37
*1030 net38
*1031 net39
*1032 net4
*1033 net40
*1034 net41
*1035 net42
*1036 net43
*1037 net44
*1038 net45
*1039 net46
*1040 net47
*1041 net48
*1042 net49
*1043 net5
*1044 net50
*1045 net51
*1046 net52
*1047 net53
*1048 net54
*1049 net55
*1050 net56
*1051 net57
*1052 net58
*1053 net59
*1054 net6
*1055 net60
*1056 net61
*1057 net62
*1058 net63
*1059 net64
*1060 net65
*1061 net66
*1062 net67
*1063 net68
*1064 net69
*1065 net7
*1066 net70
*1067 net71
*1068 net72
*1069 net73
*1070 net74
*1071 net75
*1072 net76
*1073 net77
*1074 net78
*1075 net79
*1076 net8
*1077 net80
*1078 net81
*1079 net82
*1080 net83
*1081 net84
*1082 net85
*1083 net86
*1084 net87
*1085 net88
*1086 net89
*1087 net9
*1088 net90
*1089 net91
*1090 net92
*1091 net93
*1092 net94
*1093 net95
*1094 net96
*1095 net97
*1096 net98
*1097 net99
*1098 rd_ptr\[0\]
*1099 rd_ptr\[1\]
*1100 rd_ptr\[2\]
*1101 rd_ptr\[3\]
*1102 wr_ptr\[0\]
*1103 wr_ptr\[1\]
*1104 wr_ptr\[2\]
*1105 wr_ptr\[3\]
*1106 ANTENNA_1
*1107 ANTENNA__0525__B1
*1108 ANTENNA__0526__B1
*1109 ANTENNA__0527__B1
*1110 ANTENNA__0528__B1
*1111 ANTENNA__0544__A2
*1112 ANTENNA__0559__X
*1113 ANTENNA__0570__B1
*1114 ANTENNA__0571__A2
*1115 ANTENNA__0571__B1
*1116 ANTENNA__0572__A2
*1117 ANTENNA__0572__B1
*1118 ANTENNA__0573__A2
*1119 ANTENNA__0573__B1
*1120 ANTENNA__0574__A2
*1121 ANTENNA__0574__B1
*1122 ANTENNA__0575__A2
*1123 ANTENNA__0575__B1
*1124 ANTENNA__0576__A2
*1125 ANTENNA__0576__B1
*1126 ANTENNA__0577__A2
*1127 ANTENNA__0577__C1
*1128 ANTENNA__0579__A2
*1129 ANTENNA__0579__C1
*1130 ANTENNA__0581__A2
*1131 ANTENNA__0582__B1
*1132 ANTENNA__0583__A2
*1133 ANTENNA__0583__B1
*1134 ANTENNA__0584__A2
*1135 ANTENNA__0584__B1
*1136 ANTENNA__0585__A2
*1137 ANTENNA__0585__B1
*1138 ANTENNA__0586__A2
*1139 ANTENNA__0586__B1
*1140 ANTENNA__0587__A2
*1141 ANTENNA__0587__B1
*1142 ANTENNA__0588__A2
*1143 ANTENNA__0588__C1
*1144 ANTENNA__0590__A2
*1145 ANTENNA__0590__C1
*1146 ANTENNA__0592__B1
*1147 ANTENNA__0593__A2
*1148 ANTENNA__0593__B1
*1149 ANTENNA__0594__A2
*1150 ANTENNA__0594__B1
*1151 ANTENNA__0595__A2
*1152 ANTENNA__0595__B1
*1153 ANTENNA__0596__A2
*1154 ANTENNA__0596__B1
*1155 ANTENNA__0597__A2
*1156 ANTENNA__0597__B1
*1157 ANTENNA__0598__A2
*1158 ANTENNA__0598__B1
*1159 ANTENNA__0599__A2
*1160 ANTENNA__0599__C1
*1161 ANTENNA__0601__A2
*1162 ANTENNA__0601__C1
*1163 ANTENNA__0603__A2
*1164 ANTENNA__0603__B1
*1165 ANTENNA__0604__A2
*1166 ANTENNA__0604__B1
*1167 ANTENNA__0605__A2
*1168 ANTENNA__0605__B1
*1169 ANTENNA__0606__A2
*1170 ANTENNA__0606__B1
*1171 ANTENNA__0607__A2
*1172 ANTENNA__0607__B1
*1173 ANTENNA__0608__A2
*1174 ANTENNA__0609__A2
*1175 ANTENNA__0609__B1
*1176 ANTENNA__0610__A2
*1177 ANTENNA__0610__D1
*1178 ANTENNA__0612__A2
*1179 ANTENNA__0614__B
*1180 ANTENNA__0615__A2
*1181 ANTENNA__0615__B1
*1182 ANTENNA__0616__A2
*1183 ANTENNA__0616__B1
*1184 ANTENNA__0617__A2
*1185 ANTENNA__0617__B1
*1186 ANTENNA__0618__A2
*1187 ANTENNA__0618__B1
*1188 ANTENNA__0619__B1
*1189 ANTENNA__0620__A2
*1190 ANTENNA__0620__B1
*1191 ANTENNA__0621__A2
*1192 ANTENNA__0621__B1
*1193 ANTENNA__0622__A
*1194 ANTENNA__0623__A2
*1195 ANTENNA__0623__C1
*1196 ANTENNA__0623__X
*1197 ANTENNA__0624__B1
*1198 ANTENNA__0625__A2
*1199 ANTENNA__0625__B1
*1200 ANTENNA__0626__A2
*1201 ANTENNA__0626__C1
*1202 ANTENNA__0627__A2
*1203 ANTENNA__0627__B1
*1204 ANTENNA__0628__A2
*1205 ANTENNA__0629__A2
*1206 ANTENNA__0629__B1
*1207 ANTENNA__0630__A2
*1208 ANTENNA__0631__A2
*1209 ANTENNA__0632__A2
*1210 ANTENNA__0632__B1
*1211 ANTENNA__0634__A2
*1212 ANTENNA__0634__B1
*1213 ANTENNA__0636__A2
*1214 ANTENNA__0636__B1
*1215 ANTENNA__0637__A2
*1216 ANTENNA__0637__B1
*1217 ANTENNA__0638__A2
*1218 ANTENNA__0638__B1
*1219 ANTENNA__0639__A2
*1220 ANTENNA__0639__B1
*1221 ANTENNA__0640__B1
*1222 ANTENNA__0641__A2
*1223 ANTENNA__0641__B1
*1224 ANTENNA__0642__A2
*1225 ANTENNA__0642__B1
*1226 ANTENNA__0643__A2
*1227 ANTENNA__0643__C1
*1228 ANTENNA__0645__A2
*1229 ANTENNA__0645__C1
*1230 ANTENNA__0647__A2
*1231 ANTENNA__0648__A2
*1232 ANTENNA__0648__B1
*1233 ANTENNA__0649__A2
*1234 ANTENNA__0650__A2
*1235 ANTENNA__0650__B1
*1236 ANTENNA__0651__A2
*1237 ANTENNA__0651__B1
*1238 ANTENNA__0652__A2
*1239 ANTENNA__0652__B1
*1240 ANTENNA__0653__A2
*1241 ANTENNA__0653__B1
*1242 ANTENNA__0654__A2
*1243 ANTENNA__0654__B1
*1244 ANTENNA__0656__A2
*1245 ANTENNA__0656__C1
*1246 ANTENNA__0658__A2
*1247 ANTENNA__0658__B1
*1248 ANTENNA__0659__A2
*1249 ANTENNA__0659__B1
*1250 ANTENNA__0660__A2
*1251 ANTENNA__0660__B1
*1252 ANTENNA__0661__A2
*1253 ANTENNA__0661__B1
*1254 ANTENNA__0662__A2
*1255 ANTENNA__0662__B1
*1256 ANTENNA__0663__A2
*1257 ANTENNA__0664__A2
*1258 ANTENNA__0664__B1
*1259 ANTENNA__0665__A2
*1260 ANTENNA__0665__C1
*1261 ANTENNA__0667__A2
*1262 ANTENNA__0667__C1
*1263 ANTENNA__0669__B
*1264 ANTENNA__0670__A2
*1265 ANTENNA__0670__B1
*1266 ANTENNA__0671__A2
*1267 ANTENNA__0671__B1
*1268 ANTENNA__0671__C1
*1269 ANTENNA__0672__A2
*1270 ANTENNA__0672__B1
*1271 ANTENNA__0673__A2
*1272 ANTENNA__0673__B1
*1273 ANTENNA__0674__A2
*1274 ANTENNA__0674__B1
*1275 ANTENNA__0675__A2
*1276 ANTENNA__0675__B1
*1277 ANTENNA__0676__A2
*1278 ANTENNA__0676__B1
*1279 ANTENNA__0678__A2
*1280 ANTENNA__0678__C1
*1281 ANTENNA__0680__A2
*1282 ANTENNA__0680__B1
*1283 ANTENNA__0681__B1
*1284 ANTENNA__0682__A2
*1285 ANTENNA__0683__B1
*1286 ANTENNA__0684__A2
*1287 ANTENNA__0684__B1
*1288 ANTENNA__0685__A2
*1289 ANTENNA__0685__B1
*1290 ANTENNA__0686__A2
*1291 ANTENNA__0686__B1
*1292 ANTENNA__0687__A2
*1293 ANTENNA__0687__C1
*1294 ANTENNA__0689__A2
*1295 ANTENNA__0689__C1
*1296 ANTENNA__0691__A2
*1297 ANTENNA__0691__B1
*1298 ANTENNA__0693__A2
*1299 ANTENNA__0693__B1
*1300 ANTENNA__0694__A2
*1301 ANTENNA__0694__B1
*1302 ANTENNA__0694__C1
*1303 ANTENNA__0695__A2
*1304 ANTENNA__0695__B1
*1305 ANTENNA__0696__B1
*1306 ANTENNA__0697__B1
*1307 ANTENNA__0698__A2
*1308 ANTENNA__0698__B1
*1309 ANTENNA__0700__A2
*1310 ANTENNA__0702__A2
*1311 ANTENNA__0702__B1
*1312 ANTENNA__0703__A2
*1313 ANTENNA__0703__B1
*1314 ANTENNA__0705__A2
*1315 ANTENNA__0705__B1
*1316 ANTENNA__0706__A2
*1317 ANTENNA__0706__B1
*1318 ANTENNA__0707__B1
*1319 ANTENNA__0708__A2
*1320 ANTENNA__0708__B1
*1321 ANTENNA__0709__A2
*1322 ANTENNA__0709__C1
*1323 ANTENNA__0711__A2
*1324 ANTENNA__0713__B
*1325 ANTENNA__0714__A2
*1326 ANTENNA__0714__B1
*1327 ANTENNA__0715__A2
*1328 ANTENNA__0715__B1
*1329 ANTENNA__0716__A2
*1330 ANTENNA__0716__B1
*1331 ANTENNA__0716__C1
*1332 ANTENNA__0717__A2
*1333 ANTENNA__0717__B1
*1334 ANTENNA__0718__A2
*1335 ANTENNA__0718__B1
*1336 ANTENNA__0719__B1
*1337 ANTENNA__0720__B1
*1338 ANTENNA__0722__A2
*1339 ANTENNA__0722__C1
*1340 ANTENNA__0724__A2
*1341 ANTENNA__0724__B1
*1342 ANTENNA__0725__A2
*1343 ANTENNA__0725__B1
*1344 ANTENNA__0726__B1
*1345 ANTENNA__0727__A2
*1346 ANTENNA__0727__B1
*1347 ANTENNA__0728__A2
*1348 ANTENNA__0728__B1
*1349 ANTENNA__0729__A2
*1350 ANTENNA__0729__B1
*1351 ANTENNA__0730__A2
*1352 ANTENNA__0731__A2
*1353 ANTENNA__0731__C1
*1354 ANTENNA__0733__A2
*1355 ANTENNA__0735__A2
*1356 ANTENNA__0735__B1
*1357 ANTENNA__0736__A2
*1358 ANTENNA__0736__B1
*1359 ANTENNA__0737__B1
*1360 ANTENNA__0738__A2
*1361 ANTENNA__0738__B1
*1362 ANTENNA__0739__A2
*1363 ANTENNA__0739__B1
*1364 ANTENNA__0740__B1
*1365 ANTENNA__0741__A2
*1366 ANTENNA__0741__B1
*1367 ANTENNA__0742__A2
*1368 ANTENNA__0742__C1
*1369 ANTENNA__0744__A2
*1370 ANTENNA__0744__C1
*1371 ANTENNA__0752__A1
*1372 ANTENNA__0764__S
*1373 ANTENNA__0765__S
*1374 ANTENNA__0766__S
*1375 ANTENNA__0767__S
*1376 ANTENNA__0768__S
*1377 ANTENNA__0769__S
*1378 ANTENNA__0770__S
*1379 ANTENNA__0771__S
*1380 ANTENNA__0772__S
*1381 ANTENNA__0773__S
*1382 ANTENNA__0774__S
*1383 ANTENNA__0775__A0
*1384 ANTENNA__0777__S
*1385 ANTENNA__0779__S
*1386 ANTENNA__0782__S
*1387 ANTENNA__0783__S
*1388 ANTENNA__0784__S
*1389 ANTENNA__0785__S
*1390 ANTENNA__0786__S
*1391 ANTENNA__0787__S
*1392 ANTENNA__0788__S
*1393 ANTENNA__0789__S
*1394 ANTENNA__0790__S
*1395 ANTENNA__0791__S
*1396 ANTENNA__0792__S
*1397 ANTENNA__0793__S
*1398 ANTENNA__0794__S
*1399 ANTENNA__0795__S
*1400 ANTENNA__0796__S
*1401 ANTENNA__0797__S
*1402 ANTENNA__0799__Y
*1403 ANTENNA__0800__S
*1404 ANTENNA__0801__S
*1405 ANTENNA__0802__S
*1406 ANTENNA__0803__S
*1407 ANTENNA__0804__S
*1408 ANTENNA__0805__S
*1409 ANTENNA__0806__S
*1410 ANTENNA__0807__S
*1411 ANTENNA__0808__S
*1412 ANTENNA__0811__S
*1413 ANTENNA__0813__S
*1414 ANTENNA__0815__S
*1415 ANTENNA__0817__S
*1416 ANTENNA__0818__S
*1417 ANTENNA__0819__S
*1418 ANTENNA__0820__S
*1419 ANTENNA__0821__S
*1420 ANTENNA__0822__S
*1421 ANTENNA__0823__S
*1422 ANTENNA__0824__S
*1423 ANTENNA__0825__S
*1424 ANTENNA__0826__S
*1425 ANTENNA__0827__S
*1426 ANTENNA__0828__S
*1427 ANTENNA__0829__S
*1428 ANTENNA__0830__S
*1429 ANTENNA__0831__S
*1430 ANTENNA__0832__S
*1431 ANTENNA__0835__S
*1432 ANTENNA__0836__S
*1433 ANTENNA__0837__S
*1434 ANTENNA__0838__S
*1435 ANTENNA__0839__S
*1436 ANTENNA__0840__S
*1437 ANTENNA__0841__S
*1438 ANTENNA__0843__S
*1439 ANTENNA__0844__S
*1440 ANTENNA__0845__S
*1441 ANTENNA__0846__S
*1442 ANTENNA__0848__S
*1443 ANTENNA__0850__S
*1444 ANTENNA__0852__S
*1445 ANTENNA__0854__S
*1446 ANTENNA__0856__S
*1447 ANTENNA__0858__S
*1448 ANTENNA__0859__S
*1449 ANTENNA__0860__S
*1450 ANTENNA__0861__S
*1451 ANTENNA__0862__S
*1452 ANTENNA__0863__S
*1453 ANTENNA__0864__S
*1454 ANTENNA__0865__S
*1455 ANTENNA__0866__S
*1456 ANTENNA__0867__S
*1457 ANTENNA__0869__S
*1458 ANTENNA__0870__A1
*1459 ANTENNA__0870__S
*1460 ANTENNA__0871__S
*1461 ANTENNA__0872__S
*1462 ANTENNA__0873__S
*1463 ANTENNA__0874__S
*1464 ANTENNA__0875__S
*1465 ANTENNA__0876__S
*1466 ANTENNA__0877__S
*1467 ANTENNA__0878__S
*1468 ANTENNA__0879__S
*1469 ANTENNA__0880__A1
*1470 ANTENNA__0880__S
*1471 ANTENNA__0881__S
*1472 ANTENNA__0882__S
*1473 ANTENNA__0883__S
*1474 ANTENNA__0884__S
*1475 ANTENNA__0886__S
*1476 ANTENNA__0887__S
*1477 ANTENNA__0888__S
*1478 ANTENNA__0889__S
*1479 ANTENNA__0890__S
*1480 ANTENNA__0891__S
*1481 ANTENNA__0892__S
*1482 ANTENNA__0893__S
*1483 ANTENNA__0894__S
*1484 ANTENNA__0895__S
*1485 ANTENNA__0896__S
*1486 ANTENNA__0897__S
*1487 ANTENNA__0898__S
*1488 ANTENNA__0899__S
*1489 ANTENNA__0900__S
*1490 ANTENNA__0901__S
*1491 ANTENNA__0904__S
*1492 ANTENNA__0905__A1
*1493 ANTENNA__0905__S
*1494 ANTENNA__0906__S
*1495 ANTENNA__0907__S
*1496 ANTENNA__0908__S
*1497 ANTENNA__0909__S
*1498 ANTENNA__0910__S
*1499 ANTENNA__0911__A1
*1500 ANTENNA__0911__S
*1501 ANTENNA__0912__S
*1502 ANTENNA__0913__S
*1503 ANTENNA__0914__S
*1504 ANTENNA__0915__S
*1505 ANTENNA__0916__S
*1506 ANTENNA__0917__S
*1507 ANTENNA__0918__S
*1508 ANTENNA__0919__S
*1509 ANTENNA__0920__Y
*1510 ANTENNA__0921__S
*1511 ANTENNA__0922__S
*1512 ANTENNA__0923__S
*1513 ANTENNA__0924__S
*1514 ANTENNA__0925__S
*1515 ANTENNA__0926__S
*1516 ANTENNA__0927__S
*1517 ANTENNA__0928__S
*1518 ANTENNA__0929__S
*1519 ANTENNA__0930__S
*1520 ANTENNA__0932__A1
*1521 ANTENNA__0934__S
*1522 ANTENNA__0936__S
*1523 ANTENNA__0937__Y
*1524 ANTENNA__0939__A1
*1525 ANTENNA__0941__S
*1526 ANTENNA__0943__S
*1527 ANTENNA__0945__A1
*1528 ANTENNA__0945__S
*1529 ANTENNA__0947__A1
*1530 ANTENNA__0947__S
*1531 ANTENNA__0950__A1
*1532 ANTENNA__0950__S
*1533 ANTENNA__0952__S
*1534 ANTENNA__0955__S
*1535 ANTENNA__0956__S
*1536 ANTENNA__0957__S
*1537 ANTENNA__0958__S
*1538 ANTENNA__0959__S
*1539 ANTENNA__0960__S
*1540 ANTENNA__0961__S
*1541 ANTENNA__0962__S
*1542 ANTENNA__0963__S
*1543 ANTENNA__0964__S
*1544 ANTENNA__0965__S
*1545 ANTENNA__0966__S
*1546 ANTENNA__0967__S
*1547 ANTENNA__0968__S
*1548 ANTENNA__0969__S
*1549 ANTENNA__0970__S
*1550 ANTENNA__0973__S
*1551 ANTENNA__0974__A1
*1552 ANTENNA__0974__S
*1553 ANTENNA__0975__S
*1554 ANTENNA__0976__S
*1555 ANTENNA__0977__S
*1556 ANTENNA__0978__S
*1557 ANTENNA__0979__S
*1558 ANTENNA__0980__S
*1559 ANTENNA__0981__S
*1560 ANTENNA__0982__A1
*1561 ANTENNA__0983__S
*1562 ANTENNA__0984__A1
*1563 ANTENNA__0986__S
*1564 ANTENNA__0987__S
*1565 ANTENNA__0988__S
*1566 ANTENNA__0990__S
*1567 ANTENNA__0991__A1
*1568 ANTENNA__0991__S
*1569 ANTENNA__0992__S
*1570 ANTENNA__0993__S
*1571 ANTENNA__0994__S
*1572 ANTENNA__0995__S
*1573 ANTENNA__0996__S
*1574 ANTENNA__0997__S
*1575 ANTENNA__0998__S
*1576 ANTENNA__0999__S
*1577 ANTENNA__1000__S
*1578 ANTENNA__1001__S
*1579 ANTENNA__1002__S
*1580 ANTENNA__1003__S
*1581 ANTENNA__1004__S
*1582 ANTENNA__1005__S
*1583 ANTENNA__1007__S
*1584 ANTENNA__1008__S
*1585 ANTENNA__1009__S
*1586 ANTENNA__1010__S
*1587 ANTENNA__1011__S
*1588 ANTENNA__1012__S
*1589 ANTENNA__1013__S
*1590 ANTENNA__1014__S
*1591 ANTENNA__1015__S
*1592 ANTENNA__1016__S
*1593 ANTENNA__1017__S
*1594 ANTENNA__1019__S
*1595 ANTENNA__1021__S
*1596 ANTENNA__1024__S
*1597 ANTENNA__1025__S
*1598 ANTENNA__1026__S
*1599 ANTENNA__1027__S
*1600 ANTENNA__1028__S
*1601 ANTENNA__1029__S
*1602 ANTENNA__1030__S
*1603 ANTENNA__1031__S
*1604 ANTENNA__1032__S
*1605 ANTENNA__1033__S
*1606 ANTENNA__1034__S
*1607 ANTENNA__1035__A1
*1608 ANTENNA__1035__S
*1609 ANTENNA__1036__S
*1610 ANTENNA__1037__S
*1611 ANTENNA__1038__S
*1612 ANTENNA__1039__S
*1613 ANTENNA__1064__RESET_B
*1614 ANTENNA_clkbuf_0_clk_A
*1615 ANTENNA_clkbuf_0_clk_X
*1616 ANTENNA_clkbuf_2_0__f_clk_A
*1617 ANTENNA_clkbuf_2_0__f_clk_X
*1618 ANTENNA_clkbuf_2_1__f_clk_A
*1619 ANTENNA_clkbuf_2_1__f_clk_X
*1620 ANTENNA_clkbuf_2_2__f_clk_A
*1621 ANTENNA_clkbuf_2_2__f_clk_X
*1622 ANTENNA_clkbuf_2_3__f_clk_A
*1623 ANTENNA_clkbuf_2_3__f_clk_X
*1624 ANTENNA_clkbuf_leaf_0_clk_A
*1625 ANTENNA_clkbuf_leaf_10_clk_A
*1626 ANTENNA_clkbuf_leaf_11_clk_A
*1627 ANTENNA_clkbuf_leaf_12_clk_A
*1628 ANTENNA_clkbuf_leaf_13_clk_A
*1629 ANTENNA_clkbuf_leaf_14_clk_A
*1630 ANTENNA_clkbuf_leaf_15_clk_A
*1631 ANTENNA_clkbuf_leaf_16_clk_A
*1632 ANTENNA_clkbuf_leaf_17_clk_A
*1633 ANTENNA_clkbuf_leaf_18_clk_A
*1634 ANTENNA_clkbuf_leaf_19_clk_A
*1635 ANTENNA_clkbuf_leaf_1_clk_A
*1636 ANTENNA_clkbuf_leaf_20_clk_A
*1637 ANTENNA_clkbuf_leaf_21_clk_A
*1638 ANTENNA_clkbuf_leaf_22_clk_A
*1639 ANTENNA_clkbuf_leaf_23_clk_A
*1640 ANTENNA_clkbuf_leaf_24_clk_A
*1641 ANTENNA_clkbuf_leaf_25_clk_A
*1642 ANTENNA_clkbuf_leaf_26_clk_A
*1643 ANTENNA_clkbuf_leaf_27_clk_A
*1644 ANTENNA_clkbuf_leaf_28_clk_A
*1645 ANTENNA_clkbuf_leaf_2_clk_A
*1646 ANTENNA_clkbuf_leaf_3_clk_A
*1647 ANTENNA_clkbuf_leaf_4_clk_A
*1648 ANTENNA_clkbuf_leaf_5_clk_A
*1649 ANTENNA_clkbuf_leaf_6_clk_A
*1650 ANTENNA_clkbuf_leaf_7_clk_A
*1651 ANTENNA_clkbuf_leaf_8_clk_A
*1652 ANTENNA_clkbuf_leaf_9_clk_A
*1653 ANTENNA_clkload0_A
*1654 ANTENNA_clkload1_A
*1655 ANTENNA_clkload2_A
*1656 ANTENNA_fanout100_A
*1657 ANTENNA_fanout101_A
*1658 ANTENNA_fanout101_X
*1659 ANTENNA_fanout102_X
*1660 ANTENNA_fanout103_A
*1661 ANTENNA_fanout103_X
*1662 ANTENNA_fanout104_A
*1663 ANTENNA_fanout104_X
*1664 ANTENNA_fanout105_X
*1665 ANTENNA_fanout106_A
*1666 ANTENNA_fanout106_X
*1667 ANTENNA_fanout107_A
*1668 ANTENNA_fanout107_X
*1669 ANTENNA_fanout108_A
*1670 ANTENNA_fanout108_X
*1671 ANTENNA_fanout109_X
*1672 ANTENNA_fanout110_A
*1673 ANTENNA_fanout110_X
*1674 ANTENNA_fanout111_A