* NGSPICE file created from acsu.ext - technology: sky130A

* Black-box entry subcircuit for sky130_fd_sc_hd__decap_3 abstract view
.subckt sky130_fd_sc_hd__decap_3 VGND VNB VPB VPWR
.ends

* Black-box entry subcircuit for sky130_fd_sc_hd__xnor2_2 abstract view
.subckt sky130_fd_sc_hd__xnor2_2 A B VGND VNB VPB VPWR Y
.ends

* Black-box entry subcircuit for sky130_fd_sc_hd__mux2_1 abstract view
.subckt sky130_fd_sc_hd__mux2_1 A0 A1 S VGND VNB VPB VPWR X
.ends

* Black-box entry subcircuit for sky130_fd_sc_hd__tapvpwrvgnd_1 abstract view
.subckt sky130_fd_sc_hd__tapvpwrvgnd_1 VGND VPWR
.ends

* Black-box entry subcircuit for sky130_fd_sc_hd__fill_1 abstract view
.subckt sky130_fd_sc_hd__fill_1 VGND VNB VPB VPWR
.ends

* Black-box entry subcircuit for sky130_fd_sc_hd__nand2_1 abstract view
.subckt sky130_fd_sc_hd__nand2_1 A B VGND VNB VPB VPWR Y
.ends

* Black-box entry subcircuit for sky130_fd_sc_hd__clkbuf_2 abstract view
.subckt sky130_fd_sc_hd__clkbuf_2 A VGND VNB VPB VPWR X
.ends

* Black-box entry subcircuit for sky130_fd_sc_hd__o22a_1 abstract view
.subckt sky130_fd_sc_hd__o22a_1 A1 A2 B1 B2 VGND VNB VPB VPWR X
.ends

* Black-box entry subcircuit for sky130_fd_sc_hd__a21oi_1 abstract view
.subckt sky130_fd_sc_hd__a21oi_1 A1 A2 B1 VGND VNB VPB VPWR Y
.ends

* Black-box entry subcircuit for sky130_ef_sc_hd__decap_12 abstract view
.subckt sky130_ef_sc_hd__decap_12 VPWR VGND VPB VNB
.ends

* Black-box entry subcircuit for sky130_fd_sc_hd__and3_1 abstract view
.subckt sky130_fd_sc_hd__and3_1 A B C VGND VNB VPB VPWR X
.ends

* Black-box entry subcircuit for sky130_fd_sc_hd__a31o_1 abstract view
.subckt sky130_fd_sc_hd__a31o_1 A1 A2 A3 B1 VGND VNB VPB VPWR X
.ends

* Black-box entry subcircuit for sky130_fd_sc_hd__diode_2 abstract view
.subckt sky130_fd_sc_hd__diode_2 DIODE VGND VNB VPB VPWR
.ends

* Black-box entry subcircuit for sky130_fd_sc_hd__decap_8 abstract view
.subckt sky130_fd_sc_hd__decap_8 VGND VNB VPB VPWR
.ends

* Black-box entry subcircuit for sky130_fd_sc_hd__buf_4 abstract view
.subckt sky130_fd_sc_hd__buf_4 A VGND VNB VPB VPWR X
.ends

* Black-box entry subcircuit for sky130_fd_sc_hd__xnor2_1 abstract view
.subckt sky130_fd_sc_hd__xnor2_1 A B VGND VNB VPB VPWR Y
.ends

* Black-box entry subcircuit for sky130_fd_sc_hd__fill_2 abstract view
.subckt sky130_fd_sc_hd__fill_2 VGND VNB VPB VPWR
.ends

* Black-box entry subcircuit for sky130_fd_sc_hd__nor2_1 abstract view
.subckt sky130_fd_sc_hd__nor2_1 A B VGND VNB VPB VPWR Y
.ends

* Black-box entry subcircuit for sky130_fd_sc_hd__xor2_1 abstract view
.subckt sky130_fd_sc_hd__xor2_1 A B VGND VNB VPB VPWR X
.ends

* Black-box entry subcircuit for sky130_fd_sc_hd__decap_4 abstract view
.subckt sky130_fd_sc_hd__decap_4 VGND VNB VPB VPWR
.ends

* Black-box entry subcircuit for sky130_fd_sc_hd__and4_1 abstract view
.subckt sky130_fd_sc_hd__and4_1 A B C D VGND VNB VPB VPWR X
.ends

* Black-box entry subcircuit for sky130_fd_sc_hd__or4b_2 abstract view
.subckt sky130_fd_sc_hd__or4b_2 A B C D_N VGND VNB VPB VPWR X
.ends

* Black-box entry subcircuit for sky130_fd_sc_hd__decap_6 abstract view
.subckt sky130_fd_sc_hd__decap_6 VGND VNB VPB VPWR
.ends

* Black-box entry subcircuit for sky130_fd_sc_hd__and2b_1 abstract view
.subckt sky130_fd_sc_hd__and2b_1 A_N B VGND VNB VPB VPWR X
.ends

* Black-box entry subcircuit for sky130_fd_sc_hd__o21bai_1 abstract view
.subckt sky130_fd_sc_hd__o21bai_1 A1 A2 B1_N VGND VNB VPB VPWR Y
.ends

* Black-box entry subcircuit for sky130_fd_sc_hd__buf_1 abstract view
.subckt sky130_fd_sc_hd__buf_1 A VGND VNB VPB VPWR X
.ends

* Black-box entry subcircuit for sky130_fd_sc_hd__a221o_1 abstract view
.subckt sky130_fd_sc_hd__a221o_1 A1 A2 B1 B2 C1 VGND VNB VPB VPWR X
.ends

* Black-box entry subcircuit for sky130_fd_sc_hd__o211ai_1 abstract view
.subckt sky130_fd_sc_hd__o211ai_1 A1 A2 B1 C1 VGND VNB VPB VPWR Y
.ends

* Black-box entry subcircuit for sky130_fd_sc_hd__a31o_2 abstract view
.subckt sky130_fd_sc_hd__a31o_2 A1 A2 A3 B1 VGND VNB VPB VPWR X
.ends

* Black-box entry subcircuit for sky130_fd_sc_hd__o221a_1 abstract view
.subckt sky130_fd_sc_hd__o221a_1 A1 A2 B1 B2 C1 VGND VNB VPB VPWR X
.ends

* Black-box entry subcircuit for sky130_fd_sc_hd__and2_1 abstract view
.subckt sky130_fd_sc_hd__and2_1 A B VGND VNB VPB VPWR X
.ends

* Black-box entry subcircuit for sky130_fd_sc_hd__a21o_1 abstract view
.subckt sky130_fd_sc_hd__a21o_1 A1 A2 B1 VGND VNB VPB VPWR X
.ends

* Black-box entry subcircuit for sky130_fd_sc_hd__o211a_1 abstract view
.subckt sky130_fd_sc_hd__o211a_1 A1 A2 B1 C1 VGND VNB VPB VPWR X
.ends

* Black-box entry subcircuit for sky130_fd_sc_hd__or2_1 abstract view
.subckt sky130_fd_sc_hd__or2_1 A B VGND VNB VPB VPWR X
.ends

* Black-box entry subcircuit for sky130_fd_sc_hd__a211oi_1 abstract view
.subckt sky130_fd_sc_hd__a211oi_1 A1 A2 B1 C1 VGND VNB VPB VPWR Y
.ends

* Black-box entry subcircuit for sky130_fd_sc_hd__and3b_1 abstract view
.subckt sky130_fd_sc_hd__and3b_1 A_N B C VGND VNB VPB VPWR X
.ends

* Black-box entry subcircuit for sky130_fd_sc_hd__a311o_1 abstract view
.subckt sky130_fd_sc_hd__a311o_1 A1 A2 A3 B1 C1 VGND VNB VPB VPWR X
.ends

* Black-box entry subcircuit for sky130_fd_sc_hd__nand3_1 abstract view
.subckt sky130_fd_sc_hd__nand3_1 A B C VGND VNB VPB VPWR Y
.ends

* Black-box entry subcircuit for sky130_fd_sc_hd__o21ai_4 abstract view
.subckt sky130_fd_sc_hd__o21ai_4 A1 A2 B1 VGND VNB VPB VPWR Y
.ends

* Black-box entry subcircuit for sky130_fd_sc_hd__xor2_2 abstract view
.subckt sky130_fd_sc_hd__xor2_2 A B VGND VNB VPB VPWR X
.ends

* Black-box entry subcircuit for sky130_fd_sc_hd__inv_2 abstract view
.subckt sky130_fd_sc_hd__inv_2 A VGND VNB VPB VPWR Y
.ends

* Black-box entry subcircuit for sky130_fd_sc_hd__dlymetal6s2s_1 abstract view
.subckt sky130_fd_sc_hd__dlymetal6s2s_1 A VGND VNB VPB VPWR X
.ends

* Black-box entry subcircuit for sky130_fd_sc_hd__a22o_1 abstract view
.subckt sky130_fd_sc_hd__a22o_1 A1 A2 B1 B2 VGND VNB VPB VPWR X
.ends

* Black-box entry subcircuit for sky130_fd_sc_hd__nand4_2 abstract view
.subckt sky130_fd_sc_hd__nand4_2 A B C D VGND VNB VPB VPWR Y
.ends

* Black-box entry subcircuit for sky130_fd_sc_hd__o311a_1 abstract view
.subckt sky130_fd_sc_hd__o311a_1 A1 A2 A3 B1 C1 VGND VNB VPB VPWR X
.ends

* Black-box entry subcircuit for sky130_fd_sc_hd__or3b_1 abstract view
.subckt sky130_fd_sc_hd__or3b_1 A B C_N VGND VNB VPB VPWR X
.ends

* Black-box entry subcircuit for sky130_fd_sc_hd__a211o_1 abstract view
.subckt sky130_fd_sc_hd__a211o_1 A1 A2 B1 C1 VGND VNB VPB VPWR X
.ends

* Black-box entry subcircuit for sky130_fd_sc_hd__clkbuf_1 abstract view
.subckt sky130_fd_sc_hd__clkbuf_1 A VGND VNB VPB VPWR X
.ends

* Black-box entry subcircuit for sky130_fd_sc_hd__a31oi_2 abstract view
.subckt sky130_fd_sc_hd__a31oi_2 A1 A2 A3 B1 VGND VNB VPB VPWR Y
.ends

* Black-box entry subcircuit for sky130_fd_sc_hd__buf_2 abstract view
.subckt sky130_fd_sc_hd__buf_2 A VGND VNB VPB VPWR X
.ends

* Black-box entry subcircuit for sky130_fd_sc_hd__o32a_1 abstract view
.subckt sky130_fd_sc_hd__o32a_1 A1 A2 A3 B1 B2 VGND VNB VPB VPWR X
.ends

* Black-box entry subcircuit for sky130_fd_sc_hd__a21boi_1 abstract view
.subckt sky130_fd_sc_hd__a21boi_1 A1 A2 B1_N VGND VNB VPB VPWR Y
.ends

* Black-box entry subcircuit for sky130_fd_sc_hd__a2bb2o_1 abstract view
.subckt sky130_fd_sc_hd__a2bb2o_1 A1_N A2_N B1 B2 VGND VNB VPB VPWR X
.ends

* Black-box entry subcircuit for sky130_fd_sc_hd__and4_2 abstract view
.subckt sky130_fd_sc_hd__and4_2 A B C D VGND VNB VPB VPWR X
.ends

* Black-box entry subcircuit for sky130_fd_sc_hd__nand2_2 abstract view
.subckt sky130_fd_sc_hd__nand2_2 A B VGND VNB VPB VPWR Y
.ends

.subckt acsu bm_s0_s0_i[0] bm_s0_s0_i[1] bm_s0_s2_i[0] bm_s0_s2_i[1] bm_s1_s0_i[0]
+ bm_s1_s0_i[1] bm_s1_s2_i[0] bm_s1_s2_i[1] bm_s2_s1_i[0] bm_s2_s1_i[1] bm_s2_s3_i[0]
+ bm_s2_s3_i[1] bm_s3_s1_i[0] bm_s3_s1_i[1] bm_s3_s3_i[0] bm_s3_s3_i[1] dec_bits_o[0]
+ dec_bits_o[1] dec_bits_o[2] dec_bits_o[3] pm_s0_i[0] pm_s0_i[1] pm_s0_i[2] pm_s0_i[3]
+ pm_s0_i[4] pm_s0_i[5] pm_s0_i[6] pm_s0_i[7] pm_s0_o[0] pm_s0_o[1] pm_s0_o[2] pm_s0_o[3]
+ pm_s0_o[4] pm_s0_o[5] pm_s0_o[6] pm_s0_o[7] pm_s1_i[0] pm_s1_i[1] pm_s1_i[2] pm_s1_i[3]
+ pm_s1_i[4] pm_s1_i[5] pm_s1_i[6] pm_s1_i[7] pm_s1_o[0] pm_s1_o[1] pm_s1_o[2] pm_s1_o[3]
+ pm_s1_o[4] pm_s1_o[5] pm_s1_o[6] pm_s1_o[7] pm_s2_i[0] pm_s2_i[1] pm_s2_i[2] pm_s2_i[3]
+ pm_s2_i[4] pm_s2_i[5] pm_s2_i[6] pm_s2_i[7] pm_s2_o[0] pm_s2_o[1] pm_s2_o[2] pm_s2_o[3]
+ pm_s2_o[4] pm_s2_o[5] pm_s2_o[6] pm_s2_o[7] pm_s3_i[0] pm_s3_i[1] pm_s3_i[2] pm_s3_i[3]
+ pm_s3_i[4] pm_s3_i[5] pm_s3_i[6] pm_s3_i[7] pm_s3_o[0] pm_s3_o[1] pm_s3_o[2] pm_s3_o[3]
+ pm_s3_o[4] pm_s3_o[5] pm_s3_o[6] pm_s3_o[7] vccd1 vssd1
XFILLER_26_85 vssd1 vssd1 vccd1 vccd1 sky130_fd_sc_hd__decap_3
X_363_ net42 net14 vssd1 vssd1 vccd1 vccd1 _103_ sky130_fd_sc_hd__xnor2_2
X_294_ _020_ _023_ _045_ vssd1 vssd1 vccd1 vccd1 net81 sky130_fd_sc_hd__mux2_1
XTAP_TAPCELL_ROW_15_106 vssd1 vccd1 sky130_fd_sc_hd__tapvpwrvgnd_1
XFILLER_13_111 vssd1 vssd1 vccd1 vccd1 sky130_fd_sc_hd__fill_1
X_432_ net26 net6 vssd1 vssd1 vccd1 vccd1 _163_ sky130_fd_sc_hd__nand2_1
XFILLER_9_126 vssd1 vssd1 vccd1 vccd1 sky130_fd_sc_hd__fill_1
Xfanout105 net30 vssd1 vssd1 vccd1 vccd1 net105 sky130_fd_sc_hd__clkbuf_2
X_415_ _146_ _150_ _153_ _154_ vssd1 vssd1 vccd1 vccd1 _155_ sky130_fd_sc_hd__o22a_1
XTAP_TAPCELL_ROW_20_120 vssd1 vccd1 sky130_fd_sc_hd__tapvpwrvgnd_1
X_346_ net30 _080_ net31 vssd1 vssd1 vccd1 vccd1 _095_ sky130_fd_sc_hd__a21oi_1
XFILLER_12_10 vccd1 vssd1 vccd1 vssd1 sky130_ef_sc_hd__decap_12
X_277_ net39 net100 net94 vssd1 vssd1 vccd1 vccd1 _035_ sky130_fd_sc_hd__and3_1
XFILLER_23_20 vccd1 vssd1 vccd1 vssd1 sky130_ef_sc_hd__decap_12
XFILLER_0_57 vssd1 vssd1 vccd1 vccd1 sky130_fd_sc_hd__decap_3
XFILLER_2_165 vccd1 vssd1 vccd1 vssd1 sky130_ef_sc_hd__decap_12
X_329_ net20 net19 _053_ net21 vssd1 vssd1 vccd1 vccd1 _078_ sky130_fd_sc_hd__a31o_1
XFILLER_9_55 vssd1 vssd1 vccd1 vccd1 sky130_fd_sc_hd__fill_1
XPHY_EDGE_ROW_8_Left_36 vssd1 vssd1 vccd1 vccd1 sky130_fd_sc_hd__decap_3
XANTENNA_input18_A pm_s0_i[1] vssd1 vssd1 vccd1 vccd1 sky130_fd_sc_hd__diode_2
XFILLER_13_3 vssd1 vssd1 vccd1 vccd1 sky130_fd_sc_hd__fill_1
XFILLER_25_175 vssd1 vssd1 vccd1 vccd1 sky130_fd_sc_hd__fill_1
XFILLER_25_142 vssd1 vssd1 vccd1 vccd1 sky130_fd_sc_hd__decap_8
XFILLER_25_131 vssd1 vssd1 vccd1 vccd1 sky130_fd_sc_hd__fill_1
XFILLER_15_32 vssd1 vssd1 vccd1 vccd1 sky130_fd_sc_hd__decap_8
XTAP_TAPCELL_ROW_18_115 vssd1 vccd1 sky130_fd_sc_hd__tapvpwrvgnd_1
Xoutput75 net75 vssd1 vssd1 vccd1 vccd1 pm_s2_o[6] sky130_fd_sc_hd__buf_4
Xoutput64 net64 vssd1 vssd1 vccd1 vccd1 pm_s1_o[3] sky130_fd_sc_hd__buf_4
Xoutput53 net53 vssd1 vssd1 vccd1 vccd1 pm_s0_o[0] sky130_fd_sc_hd__buf_4
XFILLER_22_189 vssd1 vssd1 vccd1 vccd1 sky130_fd_sc_hd__fill_1
X_362_ net42 net14 vssd1 vssd1 vccd1 vccd1 _102_ sky130_fd_sc_hd__nand2_1
XPHY_EDGE_ROW_21_Left_49 vssd1 vssd1 vccd1 vccd1 sky130_fd_sc_hd__decap_3
X_293_ _223_ _003_ net91 vssd1 vssd1 vccd1 vccd1 net80 sky130_fd_sc_hd__mux2_1
X_431_ _214_ _161_ vssd1 vssd1 vccd1 vccd1 _162_ sky130_fd_sc_hd__xnor2_1
XANTENNA_output49_A net86 vssd1 vssd1 vccd1 vccd1 sky130_fd_sc_hd__diode_2
Xfanout106 net28 vssd1 vssd1 vccd1 vccd1 net106 sky130_fd_sc_hd__clkbuf_2
XTAP_TAPCELL_ROW_20_121 vssd1 vccd1 sky130_fd_sc_hd__tapvpwrvgnd_1
XFILLER_12_22 vssd1 vssd1 vccd1 vccd1 sky130_fd_sc_hd__fill_2
X_276_ _032_ _033_ vssd1 vssd1 vccd1 vccd1 _034_ sky130_fd_sc_hd__nor2_1
X_414_ net40 _148_ vssd1 vssd1 vccd1 vccd1 _154_ sky130_fd_sc_hd__xor2_1
X_345_ net31 net105 net93 vssd1 vssd1 vccd1 vccd1 _094_ sky130_fd_sc_hd__and3_1
XFILLER_23_32 vssd1 vssd1 vccd1 vccd1 sky130_fd_sc_hd__decap_4
XPHY_EDGE_ROW_21_Right_21 vssd1 vssd1 vccd1 vccd1 sky130_fd_sc_hd__decap_3
XPHY_EDGE_ROW_12_Right_12 vssd1 vssd1 vccd1 vccd1 sky130_fd_sc_hd__decap_3
X_259_ net45 net97 net99 _220_ vssd1 vssd1 vccd1 vccd1 _017_ sky130_fd_sc_hd__and4_1
XANTENNA_input48_A pm_s3_i[7] vssd1 vssd1 vccd1 vccd1 sky130_fd_sc_hd__diode_2
XFILLER_2_177 vssd1 vssd1 vccd1 vccd1 sky130_fd_sc_hd__fill_1
X_328_ _213_ _214_ _216_ _053_ vssd1 vssd1 vccd1 vccd1 _077_ sky130_fd_sc_hd__or4b_2
XFILLER_9_34 vssd1 vssd1 vccd1 vccd1 sky130_fd_sc_hd__decap_3
XFILLER_9_67 vssd1 vssd1 vccd1 vccd1 sky130_fd_sc_hd__decap_4
XPHY_EDGE_ROW_24_Left_52 vssd1 vssd1 vccd1 vccd1 sky130_fd_sc_hd__decap_3
XFILLER_20_44 vssd1 vssd1 vccd1 vccd1 sky130_fd_sc_hd__decap_3
XFILLER_25_187 vssd1 vssd1 vccd1 vccd1 sky130_fd_sc_hd__fill_1
XPHY_EDGE_ROW_6_Right_6 vssd1 vssd1 vccd1 vccd1 sky130_fd_sc_hd__decap_3
XANTENNA_input30_A pm_s1_i[5] vssd1 vssd1 vccd1 vccd1 sky130_fd_sc_hd__diode_2
XFILLER_16_176 vssd1 vssd1 vccd1 vccd1 sky130_fd_sc_hd__decap_3
XFILLER_15_77 vssd1 vssd1 vccd1 vccd1 sky130_fd_sc_hd__decap_3
Xoutput76 net76 vssd1 vssd1 vccd1 vccd1 pm_s2_o[7] sky130_fd_sc_hd__buf_4
Xoutput65 net65 vssd1 vssd1 vccd1 vccd1 pm_s1_o[4] sky130_fd_sc_hd__buf_4
Xoutput54 net54 vssd1 vssd1 vccd1 vccd1 pm_s0_o[1] sky130_fd_sc_hd__buf_4
XFILLER_22_113 vssd1 vssd1 vccd1 vccd1 sky130_fd_sc_hd__decap_6
XFILLER_22_102 vssd1 vssd1 vccd1 vccd1 sky130_fd_sc_hd__fill_1
XTAP_TAPCELL_ROW_23_130 vssd1 vccd1 sky130_fd_sc_hd__tapvpwrvgnd_1
X_292_ _006_ _007_ net91 vssd1 vssd1 vccd1 vccd1 net79 sky130_fd_sc_hd__mux2_1
XFILLER_13_124 vccd1 vssd1 vccd1 vssd1 sky130_ef_sc_hd__decap_12
XFILLER_13_113 vssd1 vssd1 vccd1 vccd1 sky130_fd_sc_hd__decap_6
X_430_ net111 net1 _160_ _159_ vssd1 vssd1 vccd1 vccd1 _161_ sky130_fd_sc_hd__a31o_1
X_361_ _099_ _100_ vssd1 vssd1 vccd1 vccd1 net76 sky130_fd_sc_hd__and2b_1
Xfanout107 net27 vssd1 vssd1 vccd1 vccd1 net107 sky130_fd_sc_hd__clkbuf_2
XFILLER_12_45 vssd1 vssd1 vccd1 vccd1 sky130_fd_sc_hd__fill_2
XFILLER_6_109 vccd1 vssd1 vccd1 vssd1 sky130_ef_sc_hd__decap_12
X_275_ net95 _017_ net47 vssd1 vssd1 vccd1 vccd1 _033_ sky130_fd_sc_hd__a21oi_1
X_413_ net48 _144_ vssd1 vssd1 vccd1 vccd1 _153_ sky130_fd_sc_hd__xnor2_1
X_344_ _091_ _092_ vssd1 vssd1 vccd1 vccd1 _093_ sky130_fd_sc_hd__nor2_1
XFILLER_23_88 vccd1 vssd1 vccd1 vssd1 sky130_ef_sc_hd__decap_12
XFILLER_23_55 vssd1 vssd1 vccd1 vccd1 sky130_fd_sc_hd__fill_1
XFILLER_3_3 vssd1 vssd1 vccd1 vccd1 sky130_fd_sc_hd__fill_1
X_258_ _005_ _007_ vssd1 vssd1 vccd1 vccd1 _016_ sky130_fd_sc_hd__nor2_1
X_327_ net20 net19 net21 _053_ vssd1 vssd1 vccd1 vccd1 _076_ sky130_fd_sc_hd__and4_1
XFILLER_15_8 vccd1 vssd1 vccd1 vssd1 sky130_ef_sc_hd__decap_12
XANTENNA_input23_A pm_s0_i[6] vssd1 vssd1 vccd1 vccd1 sky130_fd_sc_hd__diode_2
XFILLER_25_155 vssd1 vssd1 vccd1 vccd1 sky130_fd_sc_hd__fill_1
XFILLER_25_111 vssd1 vssd1 vccd1 vccd1 sky130_fd_sc_hd__fill_1
Xoutput77 net77 vssd1 vssd1 vccd1 vccd1 pm_s3_o[0] sky130_fd_sc_hd__buf_4
Xoutput66 net66 vssd1 vssd1 vccd1 vccd1 pm_s1_o[5] sky130_fd_sc_hd__buf_4
Xoutput55 net55 vssd1 vssd1 vccd1 vccd1 pm_s0_o[2] sky130_fd_sc_hd__buf_4
XFILLER_22_147 vccd1 vssd1 vccd1 vssd1 sky130_ef_sc_hd__decap_12
XFILLER_16_188 vssd1 vssd1 vccd1 vccd1 sky130_fd_sc_hd__fill_2
XFILLER_26_99 vssd1 vssd1 vccd1 vccd1 sky130_fd_sc_hd__decap_6
XFILLER_26_44 vssd1 vssd1 vccd1 vccd1 sky130_fd_sc_hd__fill_1
XFILLER_22_169 vccd1 vssd1 vccd1 vssd1 sky130_ef_sc_hd__decap_12
X_291_ _008_ net91 _046_ vssd1 vssd1 vccd1 vccd1 net78 sky130_fd_sc_hd__o21bai_1
XFILLER_13_136 vccd1 vssd1 vccd1 vssd1 sky130_ef_sc_hd__decap_12
XFILLER_13_103 vssd1 vssd1 vccd1 vccd1 sky130_fd_sc_hd__decap_8
X_360_ _093_ _097_ net89 vssd1 vssd1 vccd1 vccd1 net75 sky130_fd_sc_hd__mux2_1
X_489_ _209_ _210_ vssd1 vssd1 vccd1 vccd1 net60 sky130_fd_sc_hd__and2b_1
XFILLER_12_79 vssd1 vssd1 vccd1 vccd1 sky130_fd_sc_hd__decap_4
Xfanout108 net27 vssd1 vssd1 vccd1 vccd1 net108 sky130_fd_sc_hd__buf_1
XFILLER_10_139 vssd1 vssd1 vccd1 vccd1 sky130_fd_sc_hd__fill_1
X_274_ net47 net95 _017_ vssd1 vssd1 vccd1 vccd1 _032_ sky130_fd_sc_hd__and3_1
X_412_ _139_ _143_ _146_ _150_ _151_ vssd1 vssd1 vccd1 vccd1 _152_ sky130_fd_sc_hd__a221o_1
X_343_ net22 _076_ net23 vssd1 vssd1 vccd1 vccd1 _092_ sky130_fd_sc_hd__a21oi_1
XFILLER_5_121 vssd1 vssd1 vccd1 vccd1 sky130_fd_sc_hd__decap_3
XFILLER_5_143 vccd1 vssd1 vccd1 vssd1 sky130_ef_sc_hd__decap_12
XFILLER_2_124 vccd1 vssd1 vccd1 vssd1 sky130_ef_sc_hd__decap_12
X_257_ _005_ _007_ _014_ vssd1 vssd1 vccd1 vccd1 _015_ sky130_fd_sc_hd__a21oi_1
X_326_ _067_ _068_ _070_ _071_ vssd1 vssd1 vccd1 vccd1 _075_ sky130_fd_sc_hd__o211ai_1
Xfanout90 net51 vssd1 vssd1 vccd1 vccd1 net90 sky130_fd_sc_hd__buf_1
XFILLER_18_67 vccd1 vssd1 vccd1 vssd1 sky130_ef_sc_hd__decap_12
XANTENNA__488__S net86 vssd1 vssd1 vccd1 vccd1 sky130_fd_sc_hd__diode_2
X_309_ net7 net25 _057_ _055_ vssd1 vssd1 vccd1 vccd1 _058_ sky130_fd_sc_hd__a31o_2
XFILLER_6_48 vssd1 vssd1 vccd1 vccd1 sky130_fd_sc_hd__fill_2
XTAP_TAPCELL_ROW_10_90 vssd1 vccd1 sky130_fd_sc_hd__tapvpwrvgnd_1
XFILLER_19_164 vssd1 vssd1 vccd1 vccd1 sky130_fd_sc_hd__decap_4
XFILLER_25_167 vssd1 vssd1 vccd1 vccd1 sky130_fd_sc_hd__fill_1
XFILLER_25_134 vssd1 vssd1 vccd1 vccd1 sky130_fd_sc_hd__fill_2
XFILLER_15_57 vccd1 vssd1 vccd1 vssd1 sky130_ef_sc_hd__decap_12
Xoutput78 net78 vssd1 vssd1 vccd1 vccd1 pm_s3_o[1] sky130_fd_sc_hd__buf_4
Xoutput67 net67 vssd1 vssd1 vccd1 vccd1 pm_s1_o[6] sky130_fd_sc_hd__buf_4
Xoutput56 net56 vssd1 vssd1 vccd1 vccd1 pm_s0_o[3] sky130_fd_sc_hd__buf_4
XANTENNA_input16_A bm_s3_s3_i[1] vssd1 vssd1 vccd1 vccd1 sky130_fd_sc_hd__diode_2
XFILLER_16_156 vccd1 vssd1 vccd1 vssd1 sky130_ef_sc_hd__decap_12
XFILLER_26_34 vssd1 vssd1 vccd1 vccd1 sky130_fd_sc_hd__decap_4
XFILLER_22_159 vssd1 vssd1 vccd1 vccd1 sky130_fd_sc_hd__decap_6
XFILLER_22_137 vssd1 vssd1 vccd1 vccd1 sky130_fd_sc_hd__decap_3
XANTENNA_input8_A bm_s1_s2_i[1] vssd1 vssd1 vccd1 vccd1 sky130_fd_sc_hd__diode_2
X_290_ _041_ _043_ _044_ _040_ _013_ vssd1 vssd1 vccd1 vccd1 _046_ sky130_fd_sc_hd__o221a_1
XFILLER_13_148 vccd1 vssd1 vccd1 vssd1 sky130_ef_sc_hd__decap_12
X_488_ _203_ _207_ net86 vssd1 vssd1 vccd1 vccd1 net59 sky130_fd_sc_hd__mux2_1
XFILLER_3_16 vccd1 vssd1 vccd1 vssd1 sky130_ef_sc_hd__decap_12
XFILLER_9_108 vssd1 vssd1 vccd1 vccd1 sky130_fd_sc_hd__decap_4
Xfanout109 net20 vssd1 vssd1 vccd1 vccd1 net109 sky130_fd_sc_hd__clkbuf_2
XTAP_TAPCELL_ROW_3_70 vssd1 vccd1 sky130_fd_sc_hd__tapvpwrvgnd_1
X_411_ _140_ _142_ vssd1 vssd1 vccd1 vccd1 _151_ sky130_fd_sc_hd__and2_1
X_273_ _028_ _029_ _030_ vssd1 vssd1 vccd1 vccd1 _031_ sky130_fd_sc_hd__a21o_1
X_342_ net23 net22 _076_ vssd1 vssd1 vccd1 vccd1 _091_ sky130_fd_sc_hd__and3_1
XFILLER_12_69 vssd1 vssd1 vccd1 vccd1 sky130_fd_sc_hd__decap_3
XFILLER_5_8 vccd1 vssd1 vccd1 vssd1 sky130_ef_sc_hd__decap_12
XFILLER_5_155 vccd1 vssd1 vccd1 vssd1 sky130_ef_sc_hd__decap_12
XFILLER_23_57 vccd1 vssd1 vccd1 vssd1 sky130_ef_sc_hd__decap_12
XFILLER_2_103 vccd1 vssd1 vccd1 vssd1 sky130_ef_sc_hd__decap_12
XFILLER_2_136 vssd1 vssd1 vccd1 vccd1 sky130_fd_sc_hd__decap_4
Xfanout91 _045_ vssd1 vssd1 vccd1 vccd1 net91 sky130_fd_sc_hd__clkbuf_2
X_256_ _008_ _012_ _013_ _011_ vssd1 vssd1 vccd1 vccd1 _014_ sky130_fd_sc_hd__o22a_1
XTAP_TAPCELL_ROW_0_60 vssd1 vccd1 sky130_fd_sc_hd__tapvpwrvgnd_1
X_325_ _059_ _065_ vssd1 vssd1 vccd1 vccd1 _074_ sky130_fd_sc_hd__nor2_1
XFILLER_9_26 vssd1 vssd1 vccd1 vccd1 sky130_fd_sc_hd__decap_8
XANTENNA_input46_A pm_s3_i[5] vssd1 vssd1 vccd1 vccd1 sky130_fd_sc_hd__diode_2
X_239_ net12 net34 vssd1 vssd1 vccd1 vccd1 _224_ sky130_fd_sc_hd__and2_1
X_308_ net8 net26 vssd1 vssd1 vccd1 vccd1 _057_ sky130_fd_sc_hd__xor2_1
XFILLER_20_36 vssd1 vssd1 vccd1 vccd1 sky130_fd_sc_hd__decap_8
XTAP_TAPCELL_ROW_10_91 vssd1 vccd1 sky130_fd_sc_hd__tapvpwrvgnd_1
XFILLER_6_27 vssd1 vssd1 vccd1 vccd1 sky130_fd_sc_hd__fill_1
XFILLER_25_113 vssd1 vssd1 vccd1 vccd1 sky130_fd_sc_hd__fill_2
XFILLER_15_69 vssd1 vssd1 vccd1 vccd1 sky130_fd_sc_hd__decap_8
Xoutput57 net57 vssd1 vssd1 vccd1 vccd1 pm_s0_o[4] sky130_fd_sc_hd__buf_4
XPHY_EDGE_ROW_19_Right_19 vssd1 vssd1 vccd1 vccd1 sky130_fd_sc_hd__decap_3
XFILLER_16_168 vssd1 vssd1 vccd1 vccd1 sky130_fd_sc_hd__decap_8
Xoutput79 net79 vssd1 vssd1 vccd1 vccd1 pm_s3_o[2] sky130_fd_sc_hd__buf_4
Xoutput68 net68 vssd1 vssd1 vccd1 vccd1 pm_s1_o[7] sky130_fd_sc_hd__buf_4
XPHY_EDGE_ROW_15_Left_43 vssd1 vssd1 vccd1 vccd1 sky130_fd_sc_hd__decap_3
XFILLER_3_28 vssd1 vssd1 vccd1 vccd1 sky130_fd_sc_hd__fill_2
X_487_ _197_ _196_ net85 vssd1 vssd1 vccd1 vccd1 net58 sky130_fd_sc_hd__mux2_1
XFILLER_8_120 vssd1 vssd1 vccd1 vccd1 sky130_fd_sc_hd__fill_1
X_410_ _148_ _149_ vssd1 vssd1 vccd1 vccd1 _150_ sky130_fd_sc_hd__nor2_1
X_272_ net94 _022_ _018_ _019_ vssd1 vssd1 vccd1 vccd1 _030_ sky130_fd_sc_hd__o211a_1
XPHY_EDGE_ROW_0_Left_28 vssd1 vssd1 vccd1 vccd1 sky130_fd_sc_hd__decap_3
X_341_ _086_ _087_ vssd1 vssd1 vccd1 vccd1 _090_ sky130_fd_sc_hd__or2_1
XFILLER_5_101 vssd1 vssd1 vccd1 vccd1 sky130_fd_sc_hd__fill_1
XFILLER_5_167 vssd1 vssd1 vccd1 vccd1 sky130_fd_sc_hd__fill_1
XFILLER_5_189 vssd1 vssd1 vccd1 vccd1 sky130_fd_sc_hd__fill_1
XFILLER_23_69 vssd1 vssd1 vccd1 vccd1 sky130_fd_sc_hd__decap_4
XFILLER_23_47 vssd1 vssd1 vccd1 vccd1 sky130_fd_sc_hd__decap_8
Xfanout92 _130_ vssd1 vssd1 vccd1 vccd1 net92 sky130_fd_sc_hd__clkbuf_2
X_255_ _225_ _226_ vssd1 vssd1 vccd1 vccd1 _013_ sky130_fd_sc_hd__xnor2_1
XFILLER_13_91 vccd1 vssd1 vccd1 vssd1 sky130_ef_sc_hd__decap_12
XFILLER_2_115 vssd1 vssd1 vccd1 vccd1 sky130_fd_sc_hd__decap_3
X_324_ _070_ _071_ _067_ _068_ vssd1 vssd1 vccd1 vccd1 _073_ sky130_fd_sc_hd__a211oi_1
XFILLER_9_49 vssd1 vssd1 vccd1 vccd1 sky130_fd_sc_hd__decap_6
XTAP_TAPCELL_ROW_0_61 vssd1 vccd1 sky130_fd_sc_hd__tapvpwrvgnd_1
XANTENNA__304__A1 net17 vssd1 vssd1 vccd1 vccd1 sky130_fd_sc_hd__diode_2
XANTENNA_input39_A pm_s2_i[6] vssd1 vssd1 vccd1 vccd1 sky130_fd_sc_hd__diode_2
XFILLER_18_47 vssd1 vssd1 vccd1 vccd1 sky130_fd_sc_hd__decap_4
XFILLER_1_3 vssd1 vssd1 vccd1 vccd1 sky130_fd_sc_hd__fill_2
XPHY_EDGE_ROW_3_Left_31 vssd1 vssd1 vccd1 vccd1 sky130_fd_sc_hd__decap_3
X_238_ _221_ _222_ vssd1 vssd1 vccd1 vccd1 _223_ sky130_fd_sc_hd__and2_1
X_307_ net7 net25 vssd1 vssd1 vccd1 vccd1 _056_ sky130_fd_sc_hd__nand2_1
XFILLER_1_50 vssd1 vssd1 vccd1 vccd1 sky130_fd_sc_hd__decap_6
XFILLER_20_59 vccd1 vssd1 vccd1 vssd1 sky130_ef_sc_hd__decap_12
XFILLER_20_15 vccd1 vssd1 vccd1 vssd1 sky130_ef_sc_hd__decap_12
XFILLER_19_111 vssd1 vssd1 vccd1 vccd1 sky130_fd_sc_hd__fill_1
XFILLER_25_169 vssd1 vssd1 vccd1 vccd1 sky130_fd_sc_hd__fill_2
XFILLER_21_91 vssd1 vssd1 vccd1 vccd1 sky130_fd_sc_hd__fill_1
Xoutput69 net69 vssd1 vssd1 vccd1 vccd1 pm_s2_o[0] sky130_fd_sc_hd__buf_4
Xoutput58 net58 vssd1 vssd1 vccd1 vccd1 pm_s0_o[5] sky130_fd_sc_hd__buf_4
XFILLER_7_82 vssd1 vssd1 vccd1 vccd1 sky130_fd_sc_hd__fill_1
XFILLER_26_14 vccd1 vssd1 vccd1 vssd1 sky130_ef_sc_hd__decap_12
XANTENNA_input21_A pm_s0_i[4] vssd1 vssd1 vccd1 vccd1 sky130_fd_sc_hd__diode_2
XTAP_TAPCELL_ROW_14_101 vssd1 vccd1 sky130_fd_sc_hd__tapvpwrvgnd_1
X_486_ _189_ _192_ net85 vssd1 vssd1 vccd1 vccd1 net57 sky130_fd_sc_hd__mux2_1
XFILLER_8_154 vccd1 vssd1 vccd1 vssd1 sky130_ef_sc_hd__decap_12
XFILLER_10_109 vccd1 vssd1 vccd1 vssd1 sky130_ef_sc_hd__decap_12
X_271_ net95 _018_ vssd1 vssd1 vccd1 vccd1 _029_ sky130_fd_sc_hd__xnor2_1
XFILLER_5_113 vssd1 vssd1 vccd1 vccd1 sky130_fd_sc_hd__decap_8
X_340_ _086_ _087_ _088_ vssd1 vssd1 vccd1 vccd1 _089_ sky130_fd_sc_hd__a21o_1
X_469_ _195_ _197_ vssd1 vssd1 vccd1 vccd1 _200_ sky130_fd_sc_hd__or2_1
XFILLER_4_83 vssd1 vssd1 vccd1 vccd1 sky130_fd_sc_hd__fill_1
X_254_ _009_ _010_ _226_ vssd1 vssd1 vccd1 vccd1 _012_ sky130_fd_sc_hd__and3b_1
Xfanout93 _080_ vssd1 vssd1 vccd1 vccd1 net93 sky130_fd_sc_hd__clkbuf_2
X_323_ _070_ _071_ vssd1 vssd1 vccd1 vccd1 _072_ sky130_fd_sc_hd__and2_1
XFILLER_18_15 vccd1 vssd1 vccd1 vssd1 sky130_ef_sc_hd__decap_12
XFILLER_27_3 vssd1 vssd1 vccd1 vccd1 sky130_fd_sc_hd__fill_1
X_237_ net99 _220_ net96 vssd1 vssd1 vccd1 vccd1 _222_ sky130_fd_sc_hd__a21o_1
X_306_ net8 net26 vssd1 vssd1 vccd1 vccd1 _055_ sky130_fd_sc_hd__and2_1
XFILLER_20_27 vssd1 vssd1 vccd1 vccd1 sky130_fd_sc_hd__fill_1
XFILLER_1_73 vssd1 vssd1 vccd1 vccd1 sky130_fd_sc_hd__fill_2
XFILLER_6_29 vssd1 vssd1 vccd1 vccd1 sky130_fd_sc_hd__decap_8
XFILLER_10_82 vssd1 vssd1 vccd1 vccd1 sky130_fd_sc_hd__fill_2
XFILLER_16_104 vccd1 vssd1 vccd1 vssd1 sky130_ef_sc_hd__decap_12
XPHY_EDGE_ROW_1_Right_1 vssd1 vssd1 vccd1 vccd1 sky130_fd_sc_hd__decap_3
Xoutput59 net59 vssd1 vssd1 vccd1 vccd1 pm_s0_o[6] sky130_fd_sc_hd__buf_4
XTAP_TAPCELL_ROW_17_110 vssd1 vccd1 sky130_fd_sc_hd__tapvpwrvgnd_1
XFILLER_26_26 vssd1 vssd1 vccd1 vccd1 sky130_fd_sc_hd__fill_2
XFILLER_21_140 vssd1 vssd1 vccd1 vccd1 sky130_fd_sc_hd__fill_1
XANTENNA_input14_A bm_s3_s1_i[1] vssd1 vssd1 vccd1 vccd1 sky130_fd_sc_hd__diode_2
XFILLER_16_92 vccd1 vssd1 vccd1 vssd1 sky130_ef_sc_hd__decap_12
XTAP_TAPCELL_ROW_14_102 vssd1 vccd1 sky130_fd_sc_hd__tapvpwrvgnd_1
X_485_ _179_ _182_ net85 vssd1 vssd1 vccd1 vccd1 net56 sky130_fd_sc_hd__mux2_1
XFILLER_8_100 vssd1 vssd1 vccd1 vccd1 sky130_fd_sc_hd__decap_8
XFILLER_8_166 vccd1 vssd1 vccd1 vssd1 sky130_ef_sc_hd__decap_12
XANTENNA_input6_A bm_s1_s0_i[1] vssd1 vssd1 vccd1 vccd1 sky130_fd_sc_hd__diode_2
XANTENNA_input17_X net17 vssd1 vssd1 vccd1 vccd1 sky130_fd_sc_hd__diode_2
X_270_ net38 _021_ vssd1 vssd1 vccd1 vccd1 _028_ sky130_fd_sc_hd__xnor2_1
XFILLER_5_136 vssd1 vssd1 vccd1 vccd1 sky130_fd_sc_hd__decap_4
XFILLER_5_169 vccd1 vssd1 vccd1 vssd1 sky130_ef_sc_hd__decap_12
XFILLER_27_91 vssd1 vssd1 vccd1 vccd1 sky130_fd_sc_hd__fill_1
X_399_ _121_ _128_ _129_ _137_ _138_ vssd1 vssd1 vccd1 vccd1 _139_ sky130_fd_sc_hd__a311o_1
X_468_ _195_ _197_ _198_ vssd1 vssd1 vccd1 vccd1 _199_ sky130_fd_sc_hd__a21o_1
XFILLER_4_73 vssd1 vssd1 vccd1 vccd1 sky130_fd_sc_hd__fill_1
X_322_ net107 _058_ net106 vssd1 vssd1 vccd1 vccd1 _071_ sky130_fd_sc_hd__a21o_1
Xfanout94 _021_ vssd1 vssd1 vccd1 vccd1 net94 sky130_fd_sc_hd__clkbuf_2
X_253_ _009_ _010_ vssd1 vssd1 vccd1 vccd1 _011_ sky130_fd_sc_hd__and2b_1
XFILLER_18_27 vssd1 vssd1 vccd1 vccd1 sky130_fd_sc_hd__fill_1
X_236_ net96 net99 _220_ vssd1 vssd1 vccd1 vccd1 _221_ sky130_fd_sc_hd__nand3_1
X_305_ _214_ _053_ vssd1 vssd1 vccd1 vccd1 _054_ sky130_fd_sc_hd__xnor2_1
XFILLER_1_85 vssd1 vssd1 vccd1 vccd1 sky130_fd_sc_hd__decap_8
XANTENNA_input44_A pm_s3_i[3] vssd1 vssd1 vccd1 vccd1 sky130_fd_sc_hd__diode_2
XFILLER_19_113 vccd1 vssd1 vccd1 vssd1 sky130_ef_sc_hd__decap_12
XFILLER_16_138 vssd1 vssd1 vccd1 vccd1 sky130_fd_sc_hd__fill_2
XFILLER_16_116 vccd1 vssd1 vccd1 vssd1 sky130_ef_sc_hd__decap_12
Xoutput49 net86 vssd1 vssd1 vccd1 vccd1 dec_bits_o[0] sky130_fd_sc_hd__buf_4
XFILLER_22_119 vssd1 vssd1 vccd1 vccd1 sky130_fd_sc_hd__fill_1
XTAP_TAPCELL_ROW_17_111 vssd1 vccd1 sky130_fd_sc_hd__tapvpwrvgnd_1
XFILLER_15_182 vssd1 vssd1 vccd1 vccd1 sky130_fd_sc_hd__fill_1
XPHY_EDGE_ROW_24_Right_24 vssd1 vssd1 vccd1 vccd1 sky130_fd_sc_hd__decap_3
XPHY_EDGE_ROW_15_Right_15 vssd1 vssd1 vccd1 vccd1 sky130_fd_sc_hd__decap_3
XFILLER_13_119 vssd1 vssd1 vccd1 vccd1 sky130_fd_sc_hd__fill_1
XFILLER_16_71 vccd1 vssd1 vccd1 vssd1 sky130_ef_sc_hd__decap_12
XTAP_TAPCELL_ROW_14_103 vssd1 vccd1 sky130_fd_sc_hd__tapvpwrvgnd_1
XFILLER_12_141 vccd1 vssd1 vccd1 vssd1 sky130_ef_sc_hd__decap_12
X_484_ _162_ _167_ net85 vssd1 vssd1 vccd1 vccd1 net55 sky130_fd_sc_hd__mux2_1
XFILLER_8_178 vccd1 vssd1 vccd1 vssd1 sky130_ef_sc_hd__decap_12
XPHY_EDGE_ROW_19_Left_47 vssd1 vssd1 vccd1 vccd1 sky130_fd_sc_hd__decap_3
X_398_ _125_ _126_ _122_ _123_ vssd1 vssd1 vccd1 vccd1 _138_ sky130_fd_sc_hd__o211a_1
XFILLER_4_41 vccd1 vssd1 vccd1 vssd1 sky130_ef_sc_hd__decap_12
XFILLER_4_85 vccd1 vssd1 vccd1 vssd1 sky130_ef_sc_hd__decap_12
X_467_ _190_ _191_ _187_ _188_ vssd1 vssd1 vccd1 vccd1 _198_ sky130_fd_sc_hd__o211a_1
XFILLER_23_39 vssd1 vssd1 vccd1 vccd1 sky130_fd_sc_hd__fill_1
Xfanout95 net46 vssd1 vssd1 vccd1 vccd1 net95 sky130_fd_sc_hd__clkbuf_2
X_252_ net11 net33 vssd1 vssd1 vccd1 vccd1 _010_ sky130_fd_sc_hd__xor2_1
XFILLER_13_72 vssd1 vssd1 vccd1 vccd1 sky130_fd_sc_hd__decap_3
XFILLER_1_140 vccd1 vssd1 vccd1 vssd1 sky130_ef_sc_hd__decap_12
X_321_ net107 net106 _058_ vssd1 vssd1 vccd1 vccd1 _070_ sky130_fd_sc_hd__nand3_1
X_235_ _218_ _219_ _217_ vssd1 vssd1 vccd1 vccd1 _220_ sky130_fd_sc_hd__o21ai_4
X_304_ net17 net3 _052_ _051_ vssd1 vssd1 vccd1 vccd1 _053_ sky130_fd_sc_hd__a31o_1
XFILLER_1_64 vssd1 vssd1 vccd1 vccd1 sky130_fd_sc_hd__fill_2
XPHY_EDGE_ROW_7_Left_35 vssd1 vssd1 vccd1 vccd1 sky130_fd_sc_hd__decap_3
XFILLER_10_40 vccd1 vssd1 vccd1 vssd1 sky130_ef_sc_hd__decap_12
XANTENNA_input37_A pm_s2_i[4] vssd1 vssd1 vccd1 vccd1 sky130_fd_sc_hd__diode_2
XFILLER_19_169 vccd1 vssd1 vccd1 vssd1 sky130_ef_sc_hd__decap_12
XFILLER_19_125 vccd1 vssd1 vccd1 vssd1 sky130_ef_sc_hd__decap_12
XFILLER_21_72 vssd1 vssd1 vccd1 vccd1 sky130_fd_sc_hd__decap_4
XFILLER_16_128 vssd1 vssd1 vccd1 vccd1 sky130_fd_sc_hd__decap_6
XTAP_TAPCELL_ROW_17_112 vssd1 vccd1 sky130_fd_sc_hd__tapvpwrvgnd_1
XFILLER_16_83 vssd1 vssd1 vccd1 vccd1 sky130_fd_sc_hd__fill_1
XFILLER_16_61 vssd1 vssd1 vccd1 vccd1 sky130_fd_sc_hd__fill_1
XFILLER_12_153 vccd1 vssd1 vccd1 vssd1 sky130_ef_sc_hd__decap_12
X_483_ _171_ _169_ net85 vssd1 vssd1 vccd1 vccd1 net54 sky130_fd_sc_hd__mux2_1
X_397_ net92 _131_ _134_ _135_ vssd1 vssd1 vccd1 vccd1 _137_ sky130_fd_sc_hd__o211a_1
XPHY_EDGE_ROW_20_Left_48 vssd1 vssd1 vccd1 vccd1 sky130_fd_sc_hd__decap_3
X_466_ net22 _187_ vssd1 vssd1 vccd1 vccd1 _197_ sky130_fd_sc_hd__xnor2_1
XFILLER_4_53 vssd1 vssd1 vccd1 vccd1 sky130_fd_sc_hd__decap_4
XFILLER_4_97 vssd1 vssd1 vccd1 vccd1 sky130_fd_sc_hd__decap_6
X_251_ net15 net41 vssd1 vssd1 vccd1 vccd1 _009_ sky130_fd_sc_hd__xor2_1
Xfanout96 net44 vssd1 vssd1 vccd1 vccd1 net96 sky130_fd_sc_hd__clkbuf_2
Xfanout85 net86 vssd1 vssd1 vccd1 vccd1 net85 sky130_fd_sc_hd__clkbuf_2
XFILLER_1_152 vccd1 vssd1 vccd1 vssd1 sky130_ef_sc_hd__decap_12
X_320_ _067_ _068_ vssd1 vssd1 vccd1 vccd1 _069_ sky130_fd_sc_hd__nor2_1
XFILLER_18_29 vssd1 vssd1 vccd1 vccd1 sky130_fd_sc_hd__decap_4
X_449_ net107 net106 _166_ vssd1 vssd1 vccd1 vccd1 _180_ sky130_fd_sc_hd__and3_1
X_234_ net16 net42 vssd1 vssd1 vccd1 vccd1 _219_ sky130_fd_sc_hd__xnor2_2
XPHY_EDGE_ROW_23_Left_51 vssd1 vssd1 vccd1 vccd1 sky130_fd_sc_hd__decap_3
X_303_ net18 net4 vssd1 vssd1 vccd1 vccd1 _052_ sky130_fd_sc_hd__xor2_2
XFILLER_19_137 vccd1 vssd1 vccd1 vssd1 sky130_ef_sc_hd__decap_12
XFILLER_10_52 vssd1 vssd1 vccd1 vccd1 sky130_fd_sc_hd__decap_4