* NGSPICE file created from tbu.ext - technology: sky130A

* Black-box entry subcircuit for sky130_fd_sc_hd__decap_6 abstract view
.subckt sky130_fd_sc_hd__decap_6 VGND VNB VPB VPWR
.ends

* Black-box entry subcircuit for sky130_fd_sc_hd__tapvpwrvgnd_1 abstract view
.subckt sky130_fd_sc_hd__tapvpwrvgnd_1 VGND VPWR
.ends

* Black-box entry subcircuit for sky130_fd_sc_hd__diode_2 abstract view
.subckt sky130_fd_sc_hd__diode_2 DIODE VGND VNB VPB VPWR
.ends

* Black-box entry subcircuit for sky130_ef_sc_hd__decap_12 abstract view
.subckt sky130_ef_sc_hd__decap_12 VPWR VGND VPB VNB
.ends

* Black-box entry subcircuit for sky130_fd_sc_hd__dfrtp_1 abstract view
.subckt sky130_fd_sc_hd__dfrtp_1 CLK D RESET_B VGND VNB VPB VPWR Q
.ends

* Black-box entry subcircuit for sky130_fd_sc_hd__mux2_1 abstract view
.subckt sky130_fd_sc_hd__mux2_1 A0 A1 S VGND VNB VPB VPWR X
.ends

* Black-box entry subcircuit for sky130_fd_sc_hd__decap_8 abstract view
.subckt sky130_fd_sc_hd__decap_8 VGND VNB VPB VPWR
.ends

* Black-box entry subcircuit for sky130_fd_sc_hd__or3_1 abstract view
.subckt sky130_fd_sc_hd__or3_1 A B C VGND VNB VPB VPWR X
.ends

* Black-box entry subcircuit for sky130_fd_sc_hd__a32o_1 abstract view
.subckt sky130_fd_sc_hd__a32o_1 A1 A2 A3 B1 B2 VGND VNB VPB VPWR X
.ends

* Black-box entry subcircuit for sky130_fd_sc_hd__a22o_1 abstract view
.subckt sky130_fd_sc_hd__a22o_1 A1 A2 B1 B2 VGND VNB VPB VPWR X
.ends

* Black-box entry subcircuit for sky130_fd_sc_hd__nand2_1 abstract view
.subckt sky130_fd_sc_hd__nand2_1 A B VGND VNB VPB VPWR Y
.ends

* Black-box entry subcircuit for sky130_fd_sc_hd__fill_1 abstract view
.subckt sky130_fd_sc_hd__fill_1 VGND VNB VPB VPWR
.ends

* Black-box entry subcircuit for sky130_fd_sc_hd__fill_2 abstract view
.subckt sky130_fd_sc_hd__fill_2 VGND VNB VPB VPWR
.ends

* Black-box entry subcircuit for sky130_fd_sc_hd__decap_4 abstract view
.subckt sky130_fd_sc_hd__decap_4 VGND VNB VPB VPWR
.ends

* Black-box entry subcircuit for sky130_fd_sc_hd__decap_3 abstract view
.subckt sky130_fd_sc_hd__decap_3 VGND VNB VPB VPWR
.ends

* Black-box entry subcircuit for sky130_fd_sc_hd__a21o_1 abstract view
.subckt sky130_fd_sc_hd__a21o_1 A1 A2 B1 VGND VNB VPB VPWR X
.ends

* Black-box entry subcircuit for sky130_fd_sc_hd__clkbuf_16 abstract view
.subckt sky130_fd_sc_hd__clkbuf_16 A VGND VNB VPB VPWR X
.ends

* Black-box entry subcircuit for sky130_fd_sc_hd__a221o_1 abstract view
.subckt sky130_fd_sc_hd__a221o_1 A1 A2 B1 B2 C1 VGND VNB VPB VPWR X
.ends

* Black-box entry subcircuit for sky130_fd_sc_hd__nand2b_1 abstract view
.subckt sky130_fd_sc_hd__nand2b_1 A_N B VGND VNB VPB VPWR Y
.ends

* Black-box entry subcircuit for sky130_fd_sc_hd__o221a_1 abstract view
.subckt sky130_fd_sc_hd__o221a_1 A1 A2 B1 B2 C1 VGND VNB VPB VPWR X
.ends

* Black-box entry subcircuit for sky130_fd_sc_hd__inv_2 abstract view
.subckt sky130_fd_sc_hd__inv_2 A VGND VNB VPB VPWR Y
.ends

* Black-box entry subcircuit for sky130_fd_sc_hd__o211ai_1 abstract view
.subckt sky130_fd_sc_hd__o211ai_1 A1 A2 B1 C1 VGND VNB VPB VPWR Y
.ends

* Black-box entry subcircuit for sky130_fd_sc_hd__and3b_1 abstract view
.subckt sky130_fd_sc_hd__and3b_1 A_N B C VGND VNB VPB VPWR X
.ends

* Black-box entry subcircuit for sky130_fd_sc_hd__nor2_1 abstract view
.subckt sky130_fd_sc_hd__nor2_1 A B VGND VNB VPB VPWR Y
.ends

* Black-box entry subcircuit for sky130_fd_sc_hd__a21bo_1 abstract view
.subckt sky130_fd_sc_hd__a21bo_1 A1 A2 B1_N VGND VNB VPB VPWR X
.ends

* Black-box entry subcircuit for sky130_fd_sc_hd__xor2_1 abstract view
.subckt sky130_fd_sc_hd__xor2_1 A B VGND VNB VPB VPWR X
.ends

* Black-box entry subcircuit for sky130_fd_sc_hd__and2b_1 abstract view
.subckt sky130_fd_sc_hd__and2b_1 A_N B VGND VNB VPB VPWR X
.ends

* Black-box entry subcircuit for sky130_fd_sc_hd__and3_1 abstract view
.subckt sky130_fd_sc_hd__and3_1 A B C VGND VNB VPB VPWR X
.ends

* Black-box entry subcircuit for sky130_fd_sc_hd__dlymetal6s2s_1 abstract view
.subckt sky130_fd_sc_hd__dlymetal6s2s_1 A VGND VNB VPB VPWR X
.ends

* Black-box entry subcircuit for sky130_fd_sc_hd__clkbuf_4 abstract view
.subckt sky130_fd_sc_hd__clkbuf_4 A VGND VNB VPB VPWR X
.ends

* Black-box entry subcircuit for sky130_fd_sc_hd__xnor2_1 abstract view
.subckt sky130_fd_sc_hd__xnor2_1 A B VGND VNB VPB VPWR Y
.ends

* Black-box entry subcircuit for sky130_fd_sc_hd__o21ba_1 abstract view
.subckt sky130_fd_sc_hd__o21ba_1 A1 A2 B1_N VGND VNB VPB VPWR X
.ends

* Black-box entry subcircuit for sky130_fd_sc_hd__a31o_1 abstract view
.subckt sky130_fd_sc_hd__a31o_1 A1 A2 A3 B1 VGND VNB VPB VPWR X
.ends

* Black-box entry subcircuit for sky130_fd_sc_hd__a21oi_1 abstract view
.subckt sky130_fd_sc_hd__a21oi_1 A1 A2 B1 VGND VNB VPB VPWR Y
.ends

* Black-box entry subcircuit for sky130_fd_sc_hd__buf_2 abstract view
.subckt sky130_fd_sc_hd__buf_2 A VGND VNB VPB VPWR X
.ends

* Black-box entry subcircuit for sky130_fd_sc_hd__clkinv_2 abstract view
.subckt sky130_fd_sc_hd__clkinv_2 A VGND VNB VPB VPWR Y
.ends

* Black-box entry subcircuit for sky130_fd_sc_hd__and4_1 abstract view
.subckt sky130_fd_sc_hd__and4_1 A B C D VGND VNB VPB VPWR X
.ends

* Black-box entry subcircuit for sky130_fd_sc_hd__o22a_1 abstract view
.subckt sky130_fd_sc_hd__o22a_1 A1 A2 B1 B2 VGND VNB VPB VPWR X
.ends

* Black-box entry subcircuit for sky130_fd_sc_hd__clkinv_4 abstract view
.subckt sky130_fd_sc_hd__clkinv_4 A VGND VNB VPB VPWR Y
.ends

* Black-box entry subcircuit for sky130_fd_sc_hd__and2_1 abstract view
.subckt sky130_fd_sc_hd__and2_1 A B VGND VNB VPB VPWR X
.ends

* Black-box entry subcircuit for sky130_fd_sc_hd__clkbuf_2 abstract view
.subckt sky130_fd_sc_hd__clkbuf_2 A VGND VNB VPB VPWR X
.ends

* Black-box entry subcircuit for sky130_fd_sc_hd__buf_1 abstract view
.subckt sky130_fd_sc_hd__buf_1 A VGND VNB VPB VPWR X
.ends

* Black-box entry subcircuit for sky130_fd_sc_hd__clkinvlp_4 abstract view
.subckt sky130_fd_sc_hd__clkinvlp_4 A VGND VNB VPB VPWR Y
.ends

* Black-box entry subcircuit for sky130_fd_sc_hd__o2bb2a_1 abstract view
.subckt sky130_fd_sc_hd__o2bb2a_1 A1_N A2_N B1 B2 VGND VNB VPB VPWR X
.ends

* Black-box entry subcircuit for sky130_fd_sc_hd__buf_4 abstract view
.subckt sky130_fd_sc_hd__buf_4 A VGND VNB VPB VPWR X
.ends

* Black-box entry subcircuit for sky130_fd_sc_hd__o2111a_1 abstract view
.subckt sky130_fd_sc_hd__o2111a_1 A1 A2 B1 C1 D1 VGND VNB VPB VPWR X
.ends

* Black-box entry subcircuit for sky130_fd_sc_hd__clkbuf_1 abstract view
.subckt sky130_fd_sc_hd__clkbuf_1 A VGND VNB VPB VPWR X
.ends

* Black-box entry subcircuit for sky130_fd_sc_hd__o21a_1 abstract view
.subckt sky130_fd_sc_hd__o21a_1 A1 A2 B1 VGND VNB VPB VPWR X
.ends

* Black-box entry subcircuit for sky130_fd_sc_hd__or3b_1 abstract view
.subckt sky130_fd_sc_hd__or3b_1 A B C_N VGND VNB VPB VPWR X
.ends

* Black-box entry subcircuit for sky130_fd_sc_hd__a211o_1 abstract view
.subckt sky130_fd_sc_hd__a211o_1 A1 A2 B1 C1 VGND VNB VPB VPWR X
.ends

* Black-box entry subcircuit for sky130_fd_sc_hd__a2111o_1 abstract view
.subckt sky130_fd_sc_hd__a2111o_1 A1 A2 B1 C1 D1 VGND VNB VPB VPWR X
.ends

* Black-box entry subcircuit for sky130_fd_sc_hd__or4bb_1 abstract view
.subckt sky130_fd_sc_hd__or4bb_1 A B C_N D_N VGND VNB VPB VPWR X
.ends

* Black-box entry subcircuit for sky130_fd_sc_hd__a2bb2o_1 abstract view
.subckt sky130_fd_sc_hd__a2bb2o_1 A1_N A2_N B1 B2 VGND VNB VPB VPWR X
.ends

* Black-box entry subcircuit for sky130_fd_sc_hd__or2_1 abstract view
.subckt sky130_fd_sc_hd__or2_1 A B VGND VNB VPB VPWR X
.ends

.subckt tbu clk dec_bits_i[0] dec_bits_i[1] dec_bits_i[2] dec_bits_i[3] decoded_bit_o
+ pm_new_s0_i[0] pm_new_s0_i[1] pm_new_s0_i[2] pm_new_s0_i[3] pm_new_s0_i[4] pm_new_s0_i[5]
+ pm_new_s0_i[6] pm_new_s0_i[7] pm_new_s1_i[0] pm_new_s1_i[1] pm_new_s1_i[2] pm_new_s1_i[3]
+ pm_new_s1_i[4] pm_new_s1_i[5] pm_new_s1_i[6] pm_new_s1_i[7] pm_new_s2_i[0] pm_new_s2_i[1]
+ pm_new_s2_i[2] pm_new_s2_i[3] pm_new_s2_i[4] pm_new_s2_i[5] pm_new_s2_i[6] pm_new_s2_i[7]
+ pm_new_s3_i[0] pm_new_s3_i[1] pm_new_s3_i[2] pm_new_s3_i[3] pm_new_s3_i[4] pm_new_s3_i[5]
+ pm_new_s3_i[6] pm_new_s3_i[7] rst_n valid_i valid_o vccd1 vssd1
XFILLER_22_133 vssd1 vssd1 vccd1 vccd1 sky130_fd_sc_hd__decap_6
XTAP_TAPCELL_ROW_9_148 vssd1 vccd1 sky130_fd_sc_hd__tapvpwrvgnd_1
XANTENNA_fanout75_A net3 vssd1 vssd1 vccd1 vccd1 sky130_fd_sc_hd__diode_2
XFILLER_45_225 vccd1 vssd1 vccd1 vssd1 sky130_ef_sc_hd__decap_12
X_501_ clknet_3_5__leaf_clk _007_ net64 vssd1 vssd1 vccd1 vccd1 history_s2\[6\] sky130_fd_sc_hd__dfrtp_1
XFILLER_13_122 vccd1 vssd1 vccd1 vssd1 sky130_ef_sc_hd__decap_12
X_432_ history_s0\[13\] history_s1\[13\] net1 vssd1 vssd1 vccd1 vccd1 _218_ sky130_fd_sc_hd__mux2_1
XFILLER_26_41 vssd1 vssd1 vccd1 vccd1 sky130_fd_sc_hd__decap_8
XFILLER_26_85 vccd1 vssd1 vccd1 vssd1 sky130_ef_sc_hd__decap_12
XFILLER_9_137 vssd1 vssd1 vccd1 vccd1 sky130_fd_sc_hd__decap_6
X_363_ _067_ net23 _168_ vssd1 vssd1 vccd1 vccd1 _175_ sky130_fd_sc_hd__or3_1
X_294_ _089_ _091_ _093_ _088_ _087_ vssd1 vssd1 vccd1 vccd1 _106_ sky130_fd_sc_hd__a32o_1
XTAP_TAPCELL_ROW_14_172 vssd1 vccd1 sky130_fd_sc_hd__tapvpwrvgnd_1
XTAP_TAPCELL_ROW_6_129 vssd1 vccd1 sky130_fd_sc_hd__tapvpwrvgnd_1
XTAP_TAPCELL_ROW_37_286 vssd1 vccd1 sky130_fd_sc_hd__tapvpwrvgnd_1
XFILLER_12_76 vssd1 vssd1 vccd1 vccd1 sky130_fd_sc_hd__decap_8
XFILLER_41_261 vccd1 vssd1 vccd1 vssd1 sky130_ef_sc_hd__decap_12
X_346_ _068_ net36 _147_ _157_ vssd1 vssd1 vccd1 vccd1 _158_ sky130_fd_sc_hd__a22o_1
XFILLER_33_217 vssd1 vssd1 vccd1 vccd1 sky130_fd_sc_hd__decap_6
X_415_ history_s0\[5\] _209_ net50 vssd1 vssd1 vccd1 vccd1 _019_ sky130_fd_sc_hd__mux2_1
XFILLER_18_269 vccd1 vssd1 vccd1 vssd1 sky130_ef_sc_hd__decap_12
XTAP_TAPCELL_ROW_28_242 vssd1 vccd1 sky130_fd_sc_hd__tapvpwrvgnd_1
X_277_ net26 _079_ vssd1 vssd1 vccd1 vccd1 _089_ sky130_fd_sc_hd__nand2_1
XFILLER_24_239 vccd1 vssd1 vccd1 vssd1 sky130_ef_sc_hd__decap_12
XTAP_TAPCELL_ROW_2_110 vssd1 vccd1 sky130_fd_sc_hd__tapvpwrvgnd_1
XFILLER_30_209 vccd1 vssd1 vccd1 vssd1 sky130_ef_sc_hd__decap_12
XFILLER_0_57 vccd1 vssd1 vccd1 vssd1 sky130_ef_sc_hd__decap_12
XFILLER_9_55 vssd1 vssd1 vccd1 vccd1 sky130_fd_sc_hd__fill_1
XFILLER_14_250 vssd1 vssd1 vccd1 vccd1 sky130_fd_sc_hd__fill_2
X_329_ net76 _082_ _083_ net23 vssd1 vssd1 vccd1 vccd1 _141_ sky130_fd_sc_hd__a22o_1
XFILLER_12_209 vssd1 vssd1 vccd1 vccd1 sky130_fd_sc_hd__fill_1
XFILLER_20_286 vccd1 vssd1 vccd1 vssd1 sky130_ef_sc_hd__decap_12
XFILLER_18_97 vccd1 vssd1 vccd1 vssd1 sky130_ef_sc_hd__decap_12
XFILLER_34_85 vssd1 vssd1 vccd1 vccd1 sky130_fd_sc_hd__decap_4
XFILLER_7_202 vccd1 vssd1 vccd1 vssd1 sky130_ef_sc_hd__decap_12
XFILLER_11_220 vssd1 vssd1 vccd1 vccd1 sky130_fd_sc_hd__decap_4
XFILLER_7_279 vssd1 vssd1 vccd1 vccd1 sky130_fd_sc_hd__fill_1
XFILLER_38_139 vssd1 vssd1 vccd1 vccd1 sky130_fd_sc_hd__fill_1
XFILLER_44_109 vccd1 vssd1 vccd1 vssd1 sky130_ef_sc_hd__decap_12
XFILLER_37_161 vssd1 vssd1 vccd1 vccd1 sky130_fd_sc_hd__decap_6
XANTENNA__458__S net47 vssd1 vssd1 vccd1 vccd1 sky130_fd_sc_hd__diode_2
XFILLER_29_117 vssd1 vssd1 vccd1 vccd1 sky130_fd_sc_hd__fill_1
XFILLER_20_98 vssd1 vssd1 vccd1 vccd1 sky130_fd_sc_hd__decap_8
XFILLER_45_51 vssd1 vssd1 vccd1 vccd1 sky130_fd_sc_hd__decap_4
XANTENNA_input18_A pm_new_s1_i[5] vssd1 vssd1 vccd1 vccd1 sky130_fd_sc_hd__diode_2
XFILLER_3_293 vssd1 vssd1 vccd1 vccd1 sky130_fd_sc_hd__decap_6
XFILLER_19_183 vssd1 vssd1 vccd1 vccd1 sky130_fd_sc_hd__decap_8
XFILLER_34_197 vccd1 vssd1 vccd1 vssd1 sky130_ef_sc_hd__decap_12
XFILLER_34_153 vccd1 vssd1 vccd1 vssd1 sky130_ef_sc_hd__decap_12
XFILLER_34_131 vssd1 vssd1 vccd1 vccd1 sky130_fd_sc_hd__decap_8
XFILLER_15_10 vccd1 vssd1 vccd1 vssd1 sky130_ef_sc_hd__decap_12
XFILLER_40_189 vssd1 vssd1 vccd1 vccd1 sky130_fd_sc_hd__decap_6
XFILLER_31_31 vccd1 vssd1 vccd1 vssd1 sky130_ef_sc_hd__decap_12
XFILLER_16_131 vssd1 vssd1 vccd1 vccd1 sky130_fd_sc_hd__decap_8
XFILLER_16_175 vssd1 vssd1 vccd1 vccd1 sky130_fd_sc_hd__fill_1
XFILLER_16_197 vssd1 vssd1 vccd1 vccd1 sky130_fd_sc_hd__decap_3
XFILLER_39_223 vssd1 vssd1 vccd1 vccd1 sky130_fd_sc_hd__fill_1
X_500_ clknet_3_5__leaf_clk _006_ net64 vssd1 vssd1 vccd1 vccd1 history_s2\[5\] sky130_fd_sc_hd__dfrtp_1
XFILLER_45_237 vccd1 vssd1 vccd1 vssd1 sky130_ef_sc_hd__decap_12
XFILLER_13_134 vssd1 vssd1 vccd1 vccd1 sky130_fd_sc_hd__decap_6
XFILLER_13_167 vssd1 vssd1 vccd1 vccd1 sky130_fd_sc_hd__fill_1
X_362_ _171_ _173_ _170_ vssd1 vssd1 vccd1 vccd1 _174_ sky130_fd_sc_hd__a21o_1
X_431_ history_s0\[13\] _217_ net53 vssd1 vssd1 vccd1 vccd1 _027_ sky130_fd_sc_hd__mux2_1
Xclkbuf_3_6__f_clk clknet_0_clk vssd1 vssd1 vccd1 vccd1 clknet_3_6__leaf_clk sky130_fd_sc_hd__clkbuf_16
XFILLER_26_97 vccd1 vssd1 vccd1 vssd1 sky130_ef_sc_hd__decap_12
XFILLER_42_85 vccd1 vssd1 vccd1 vssd1 sky130_ef_sc_hd__decap_12
XFILLER_42_41 vccd1 vssd1 vccd1 vssd1 sky130_ef_sc_hd__decap_12
X_293_ _066_ net80 _098_ _103_ _104_ vssd1 vssd1 vccd1 vccd1 _105_ sky130_fd_sc_hd__a221o_1
XFILLER_3_57 vccd1 vssd1 vccd1 vssd1 sky130_ef_sc_hd__decap_12
XTAP_TAPCELL_ROW_14_173 vssd1 vccd1 sky130_fd_sc_hd__tapvpwrvgnd_1
XFILLER_8_193 vssd1 vssd1 vccd1 vccd1 sky130_fd_sc_hd__decap_3
XTAP_TAPCELL_ROW_37_287 vssd1 vccd1 sky130_fd_sc_hd__tapvpwrvgnd_1
XFILLER_35_281 vccd1 vssd1 vccd1 vssd1 sky130_ef_sc_hd__decap_12
XFILLER_37_41 vccd1 vssd1 vccd1 vssd1 sky130_ef_sc_hd__decap_12
XTAP_TAPCELL_ROW_28_243 vssd1 vccd1 sky130_fd_sc_hd__tapvpwrvgnd_1
XFILLER_41_273 vssd1 vssd1 vccd1 vccd1 sky130_fd_sc_hd__decap_6
X_345_ _072_ net73 _148_ _155_ _156_ vssd1 vssd1 vccd1 vccd1 _157_ sky130_fd_sc_hd__a221o_1
X_276_ net20 net28 vssd1 vssd1 vccd1 vccd1 _088_ sky130_fd_sc_hd__nand2b_1
X_414_ history_s0\[4\] history_s1\[4\] net81 vssd1 vssd1 vccd1 vccd1 _209_ sky130_fd_sc_hd__mux2_1
XTAP_TAPCELL_ROW_11_154 vssd1 vccd1 sky130_fd_sc_hd__tapvpwrvgnd_1
XFILLER_17_270 vssd1 vssd1 vccd1 vccd1 sky130_fd_sc_hd__decap_8
XFILLER_17_281 vccd1 vssd1 vccd1 vssd1 sky130_ef_sc_hd__decap_12
XFILLER_32_251 vssd1 vssd1 vccd1 vccd1 sky130_fd_sc_hd__fill_1
XFILLER_32_273 vccd1 vssd1 vccd1 vssd1 sky130_ef_sc_hd__decap_12
XPHY_EDGE_ROW_12_Right_12 vssd1 vssd1 vccd1 vccd1 sky130_fd_sc_hd__decap_3
XTAP_TAPCELL_ROW_2_111 vssd1 vccd1 sky130_fd_sc_hd__tapvpwrvgnd_1
XPHY_EDGE_ROW_21_Right_21 vssd1 vssd1 vccd1 vccd1 sky130_fd_sc_hd__decap_3
XFILLER_23_21 vssd1 vssd1 vccd1 vccd1 sky130_fd_sc_hd__decap_4
XTAP_TAPCELL_ROW_25_224 vssd1 vccd1 sky130_fd_sc_hd__tapvpwrvgnd_1
XFILLER_2_100 vssd1 vssd1 vccd1 vccd1 sky130_fd_sc_hd__fill_1
XFILLER_23_98 vccd1 vssd1 vccd1 vssd1 sky130_ef_sc_hd__decap_12
XPHY_EDGE_ROW_30_Right_30 vssd1 vssd1 vccd1 vccd1 sky130_fd_sc_hd__decap_3
XFILLER_0_69 vccd1 vssd1 vccd1 vssd1 sky130_ef_sc_hd__decap_12
XFILLER_9_34 vssd1 vssd1 vccd1 vccd1 sky130_fd_sc_hd__fill_1
X_328_ net23 _083_ _137_ _138_ _139_ vssd1 vssd1 vccd1 vccd1 _140_ sky130_fd_sc_hd__o221a_1
X_259_ net26 vssd1 vssd1 vccd1 vccd1 _073_ sky130_fd_sc_hd__inv_2
XFILLER_43_3 vccd1 vssd1 vccd1 vssd1 sky130_ef_sc_hd__decap_12
XFILLER_20_221 vccd1 vssd1 vccd1 vssd1 sky130_ef_sc_hd__decap_12
XFILLER_20_298 vssd1 vssd1 vccd1 vccd1 sky130_fd_sc_hd__fill_1
XFILLER_7_225 vccd1 vssd1 vccd1 vssd1 sky130_ef_sc_hd__decap_12
XFILLER_7_214 vssd1 vssd1 vccd1 vccd1 sky130_fd_sc_hd__decap_3
XPHY_EDGE_ROW_28_Left_75 vssd1 vssd1 vccd1 vccd1 sky130_fd_sc_hd__decap_3
XPHY_EDGE_ROW_12_Left_59 vssd1 vssd1 vccd1 vccd1 sky130_fd_sc_hd__decap_3
XFILLER_29_129 vccd1 vssd1 vccd1 vssd1 sky130_ef_sc_hd__decap_12
XANTENNA__474__S net79 vssd1 vssd1 vccd1 vccd1 sky130_fd_sc_hd__diode_2
XFILLER_28_195 vssd1 vssd1 vccd1 vccd1 sky130_fd_sc_hd__fill_1
XFILLER_6_79 vssd1 vssd1 vccd1 vccd1 sky130_fd_sc_hd__decap_4
XFILLER_19_162 vssd1 vssd1 vccd1 vccd1 sky130_fd_sc_hd__decap_6
XFILLER_34_165 vccd1 vssd1 vccd1 vssd1 sky130_ef_sc_hd__decap_12
XPHY_EDGE_ROW_6_Right_6 vssd1 vssd1 vccd1 vccd1 sky130_fd_sc_hd__decap_3
XFILLER_15_22 vssd1 vssd1 vccd1 vccd1 sky130_fd_sc_hd__fill_1
XFILLER_15_33 vccd1 vssd1 vccd1 vssd1 sky130_ef_sc_hd__decap_12
XFILLER_25_187 vssd1 vssd1 vccd1 vccd1 sky130_fd_sc_hd__fill_1
XFILLER_15_77 vssd1 vssd1 vccd1 vccd1 sky130_fd_sc_hd__decap_4
XFILLER_31_43 vssd1 vssd1 vccd1 vccd1 sky130_fd_sc_hd__decap_3
XFILLER_0_253 vccd1 vssd1 vccd1 vssd1 sky130_ef_sc_hd__decap_12
XANTENNA_input30_A pm_new_s3_i[1] vssd1 vssd1 vccd1 vccd1 sky130_fd_sc_hd__diode_2
XFILLER_31_113 vssd1 vssd1 vccd1 vccd1 sky130_fd_sc_hd__decap_8
XFILLER_31_157 vssd1 vssd1 vccd1 vccd1 sky130_fd_sc_hd__decap_8
XFILLER_39_279 vssd1 vssd1 vccd1 vccd1 sky130_fd_sc_hd__fill_1
XPHY_EDGE_ROW_15_Left_62 vssd1 vssd1 vccd1 vccd1 sky130_fd_sc_hd__decap_3
XFILLER_45_249 vccd1 vssd1 vccd1 vssd1 sky130_ef_sc_hd__decap_12
XFILLER_45_205 vccd1 vssd1 vccd1 vssd1 sky130_ef_sc_hd__decap_12
XANTENNA__496__Q net39 vssd1 vssd1 vccd1 vccd1 sky130_fd_sc_hd__diode_2
XFILLER_42_53 vccd1 vssd1 vccd1 vssd1 sky130_ef_sc_hd__decap_12
XFILLER_13_102 vssd1 vssd1 vccd1 vccd1 sky130_fd_sc_hd__decap_8
X_361_ net5 _063_ _171_ _172_ vssd1 vssd1 vccd1 vccd1 _173_ sky130_fd_sc_hd__o211ai_1
X_430_ history_s0\[12\] history_s1\[12\] net1 vssd1 vssd1 vccd1 vccd1 _217_ sky130_fd_sc_hd__mux2_1
X_292_ net23 net15 _096_ vssd1 vssd1 vccd1 vccd1 _104_ sky130_fd_sc_hd__and3b_1
XFILLER_26_65 vssd1 vssd1 vccd1 vccd1 sky130_fd_sc_hd__decap_8
XFILLER_42_97 vccd1 vssd1 vccd1 vssd1 sky130_ef_sc_hd__decap_12
XFILLER_3_25 vssd1 vssd1 vccd1 vccd1 sky130_fd_sc_hd__decap_8
XFILLER_8_161 vccd1 vssd1 vccd1 vssd1 sky130_ef_sc_hd__decap_12
XTAP_TAPCELL_ROW_37_288 vssd1 vccd1 sky130_fd_sc_hd__tapvpwrvgnd_1
XFILLER_35_293 vssd1 vssd1 vccd1 vccd1 sky130_fd_sc_hd__decap_6
XTAP_TAPCELL_ROW_20_199 vssd1 vccd1 sky130_fd_sc_hd__tapvpwrvgnd_1
XPHY_EDGE_ROW_0_Left_47 vssd1 vssd1 vccd1 vccd1 sky130_fd_sc_hd__decap_3
XFILLER_37_75 vccd1 vssd1 vccd1 vssd1 sky130_ef_sc_hd__decap_12
XFILLER_37_53 vssd1 vssd1 vccd1 vccd1 sky130_fd_sc_hd__decap_3
X_413_ history_s0\[4\] _208_ net51 vssd1 vssd1 vccd1 vccd1 _018_ sky130_fd_sc_hd__mux2_1
XFILLER_18_227 vccd1 vssd1 vccd1 vssd1 sky130_ef_sc_hd__decap_12
XFILLER_18_249 vssd1 vssd1 vccd1 vccd1 sky130_fd_sc_hd__decap_3
X_344_ net11 _081_ vssd1 vssd1 vccd1 vccd1 _156_ sky130_fd_sc_hd__nor2_1
XTAP_TAPCELL_ROW_11_155 vssd1 vccd1 sky130_fd_sc_hd__tapvpwrvgnd_1
X_275_ _085_ _086_ vssd1 vssd1 vccd1 vccd1 _087_ sky130_fd_sc_hd__nand2_1
XFILLER_5_197 vccd1 vssd1 vccd1 vssd1 sky130_ef_sc_hd__decap_12
XFILLER_17_293 vssd1 vssd1 vccd1 vccd1 sky130_fd_sc_hd__decap_6
XTAP_TAPCELL_ROW_34_269 vssd1 vccd1 sky130_fd_sc_hd__tapvpwrvgnd_1
XPHY_EDGE_ROW_42_Left_89 vssd1 vssd1 vccd1 vccd1 sky130_fd_sc_hd__decap_3
XFILLER_32_285 vccd1 vssd1 vccd1 vssd1 sky130_ef_sc_hd__decap_12
XTAP_TAPCELL_ROW_2_112 vssd1 vccd1 sky130_fd_sc_hd__tapvpwrvgnd_1
XFILLER_15_208 vssd1 vssd1 vccd1 vccd1 sky130_fd_sc_hd__decap_3
XFILLER_23_55 vssd1 vssd1 vccd1 vccd1 sky130_fd_sc_hd__fill_1
XTAP_TAPCELL_ROW_25_225 vssd1 vccd1 sky130_fd_sc_hd__tapvpwrvgnd_1
XFILLER_3_3 vccd1 vssd1 vccd1 vssd1 sky130_ef_sc_hd__decap_12
XFILLER_0_15 vccd1 vssd1 vccd1 vssd1 sky130_ef_sc_hd__decap_12
XFILLER_14_230 vccd1 vssd1 vccd1 vssd1 sky130_ef_sc_hd__decap_12
XFILLER_9_57 vssd1 vssd1 vccd1 vccd1 sky130_fd_sc_hd__decap_8
X_327_ net22 net30 vssd1 vssd1 vccd1 vccd1 _139_ sky130_fd_sc_hd__nand2b_1
X_258_ net10 vssd1 vssd1 vccd1 vccd1 _072_ sky130_fd_sc_hd__inv_2
XFILLER_20_233 vccd1 vssd1 vccd1 vssd1 sky130_ef_sc_hd__decap_12
XTAP_TAPCELL_ROW_30_250 vssd1 vccd1 sky130_fd_sc_hd__tapvpwrvgnd_1
XFILLER_18_22 vssd1 vssd1 vccd1 vccd1 sky130_fd_sc_hd__decap_6
XFILLER_7_237 vccd1 vssd1 vccd1 vssd1 sky130_ef_sc_hd__decap_12
XFILLER_46_141 vccd1 vssd1 vccd1 vssd1 sky130_ef_sc_hd__decap_12
XPHY_EDGE_ROW_3_Left_50 vssd1 vssd1 vccd1 vccd1 sky130_fd_sc_hd__decap_3
XTAP_TAPCELL_ROW_44_320 vssd1 vccd1 sky130_fd_sc_hd__tapvpwrvgnd_1
XPHY_EDGE_ROW_45_Left_92 vssd1 vssd1 vccd1 vccd1 sky130_fd_sc_hd__decap_3
XFILLER_28_141 vssd1 vssd1 vccd1 vccd1 sky130_fd_sc_hd__decap_6
XFILLER_29_54 vssd1 vssd1 vccd1 vccd1 sky130_fd_sc_hd__fill_2
XFILLER_29_98 vccd1 vssd1 vccd1 vssd1 sky130_ef_sc_hd__decap_12
XFILLER_43_111 vssd1 vssd1 vccd1 vccd1 sky130_fd_sc_hd__fill_1
XFILLER_6_69 vssd1 vssd1 vccd1 vccd1 sky130_fd_sc_hd__fill_1
XFILLER_34_177 vccd1 vssd1 vccd1 vssd1 sky130_ef_sc_hd__decap_12
XFILLER_15_45 vssd1 vssd1 vccd1 vccd1 sky130_fd_sc_hd__decap_8
XFILLER_25_100 vccd1 vssd1 vccd1 vssd1 sky130_ef_sc_hd__decap_12
XANTENNA__485__S net57 vssd1 vssd1 vccd1 vccd1 sky130_fd_sc_hd__diode_2
XFILLER_25_155 vccd1 vssd1 vccd1 vssd1 sky130_ef_sc_hd__decap_12
XFILLER_0_221 vssd1 vssd1 vccd1 vccd1 sky130_fd_sc_hd__decap_3
XFILLER_0_265 vccd1 vssd1 vccd1 vssd1 sky130_ef_sc_hd__decap_12
XANTENNA_clkbuf_3_1__f_clk_A clknet_0_clk vssd1 vssd1 vccd1 vccd1 sky130_fd_sc_hd__diode_2
XANTENNA__395__S net75 vssd1 vssd1 vccd1 vccd1 sky130_fd_sc_hd__diode_2
XANTENNA_input23_A pm_new_s2_i[2] vssd1 vssd1 vccd1 vccd1 sky130_fd_sc_hd__diode_2
XFILLER_31_169 vccd1 vssd1 vccd1 vssd1 sky130_ef_sc_hd__decap_12
XFILLER_39_225 vccd1 vssd1 vccd1 vssd1 sky130_ef_sc_hd__decap_12
XFILLER_45_217 vssd1 vssd1 vccd1 vccd1 sky130_fd_sc_hd__decap_6
XFILLER_42_65 vccd1 vssd1 vccd1 vssd1 sky130_ef_sc_hd__decap_12
XFILLER_42_21 vssd1 vssd1 vccd1 vccd1 sky130_fd_sc_hd__decap_6
XFILLER_13_169 vccd1 vssd1 vccd1 vssd1 sky130_ef_sc_hd__decap_12
X_360_ net6 net22 vssd1 vssd1 vccd1 vccd1 _172_ sky130_fd_sc_hd__nand2b_1
X_291_ _100_ _101_ _099_ vssd1 vssd1 vccd1 vccd1 _103_ sky130_fd_sc_hd__a21bo_1
XFILLER_3_15 vssd1 vssd1 vccd1 vccd1 sky130_fd_sc_hd__fill_1
XTAP_TAPCELL_ROW_8_140 vssd1 vccd1 sky130_fd_sc_hd__tapvpwrvgnd_1
XFILLER_8_173 vccd1 vssd1 vccd1 vssd1 sky130_ef_sc_hd__decap_12
X_489_ latency_counter\[1\] _243_ vssd1 vssd1 vccd1 vccd1 _058_ sky130_fd_sc_hd__xor2_1
XFILLER_42_209 vccd1 vssd1 vccd1 vssd1 sky130_ef_sc_hd__decap_12
XFILLER_35_261 vccd1 vssd1 vccd1 vssd1 sky130_ef_sc_hd__decap_12
XFILLER_10_139 vssd1 vssd1 vccd1 vccd1 sky130_fd_sc_hd__fill_1
XFILLER_37_87 vccd1 vssd1 vccd1 vssd1 sky130_ef_sc_hd__decap_12
X_412_ history_s0\[3\] history_s1\[3\] net81 vssd1 vssd1 vccd1 vccd1 _208_ sky130_fd_sc_hd__mux2_1
XFILLER_18_239 vssd1 vssd1 vccd1 vccd1 sky130_fd_sc_hd__fill_1
X_274_ net27 net19 vssd1 vssd1 vccd1 vccd1 _086_ sky130_fd_sc_hd__nand2b_1
XTAP_TAPCELL_ROW_11_156 vssd1 vccd1 sky130_fd_sc_hd__tapvpwrvgnd_1
X_343_ _074_ net33 _149_ _153_ _154_ vssd1 vssd1 vccd1 vccd1 _155_ sky130_fd_sc_hd__a221o_1
XFILLER_32_297 vssd1 vssd1 vccd1 vccd1 sky130_fd_sc_hd__fill_2
XTAP_TAPCELL_ROW_2_113 vssd1 vccd1 sky130_fd_sc_hd__tapvpwrvgnd_1
XTAP_TAPCELL_ROW_25_226 vssd1 vccd1 sky130_fd_sc_hd__tapvpwrvgnd_1
XFILLER_0_27 vssd1 vssd1 vccd1 vccd1 sky130_fd_sc_hd__fill_1
XFILLER_14_242 vssd1 vssd1 vccd1 vccd1 sky130_fd_sc_hd__decap_8
XFILLER_14_253 vccd1 vssd1 vccd1 vssd1 sky130_ef_sc_hd__decap_12
XFILLER_14_297 vssd1 vssd1 vccd1 vccd1 sky130_fd_sc_hd__fill_2
X_326_ net29 net21 vssd1 vssd1 vccd1 vccd1 _138_ sky130_fd_sc_hd__and2b_1
X_257_ net27 vssd1 vssd1 vccd1 vccd1 _071_ sky130_fd_sc_hd__inv_2
XFILLER_20_245 vssd1 vssd1 vccd1 vccd1 sky130_fd_sc_hd__decap_6
XTAP_TAPCELL_ROW_30_251 vssd1 vccd1 sky130_fd_sc_hd__tapvpwrvgnd_1
XFILLER_34_44 vssd1 vssd1 vccd1 vccd1 sky130_fd_sc_hd__fill_1
XFILLER_7_249 vccd1 vssd1 vccd1 vssd1 sky130_ef_sc_hd__decap_12
XFILLER_11_245 vssd1 vssd1 vccd1 vccd1 sky130_fd_sc_hd__decap_4
XFILLER_11_278 vssd1 vssd1 vccd1 vccd1 sky130_fd_sc_hd__fill_2
XFILLER_38_109 vccd1 vssd1 vccd1 vssd1 sky130_ef_sc_hd__decap_12
XFILLER_46_197 vccd1 vssd1 vccd1 vssd1 sky130_ef_sc_hd__decap_12
XFILLER_46_153 vccd1 vssd1 vccd1 vssd1 sky130_ef_sc_hd__decap_12
XTAP_TAPCELL_ROW_44_321 vssd1 vccd1 sky130_fd_sc_hd__tapvpwrvgnd_1
X_309_ net80 net32 vssd1 vssd1 vccd1 vccd1 _121_ sky130_fd_sc_hd__nand2b_1
XFILLER_20_13 vccd1 vssd1 vccd1 vssd1 sky130_ef_sc_hd__decap_12
XFILLER_28_197 vssd1 vssd1 vccd1 vccd1 sky130_fd_sc_hd__decap_6
XFILLER_43_167 vssd1 vssd1 vccd1 vccd1 sky130_fd_sc_hd__fill_1
XFILLER_6_37 vssd1 vssd1 vccd1 vccd1 sky130_fd_sc_hd__decap_3
XFILLER_34_189 vssd1 vssd1 vccd1 vccd1 sky130_fd_sc_hd__decap_6
XFILLER_25_134 vssd1 vssd1 vccd1 vccd1 sky130_fd_sc_hd__fill_1
XFILLER_25_167 vssd1 vssd1 vccd1 vccd1 sky130_fd_sc_hd__fill_1
XFILLER_0_277 vssd1 vssd1 vccd1 vccd1 sky130_fd_sc_hd__decap_3
XANTENNA_input16_A pm_new_s1_i[3] vssd1 vssd1 vccd1 vccd1 sky130_fd_sc_hd__diode_2
XFILLER_39_237 vccd1 vssd1 vccd1 vssd1 sky130_ef_sc_hd__decap_12
XTAP_TAPCELL_ROW_17_184 vssd1 vccd1 sky130_fd_sc_hd__tapvpwrvgnd_1
XANTENNA_input8_A pm_new_s0_i[3] vssd1 vssd1 vccd1 vccd1 sky130_fd_sc_hd__diode_2
XFILLER_42_77 vssd1 vssd1 vccd1 vccd1 sky130_fd_sc_hd__decap_6
X_290_ _099_ _100_ _101_ vssd1 vssd1 vccd1 vccd1 _102_ sky130_fd_sc_hd__and3_1
XTAP_TAPCELL_ROW_8_141 vssd1 vccd1 sky130_fd_sc_hd__tapvpwrvgnd_1
XFILLER_29_281 vccd1 vssd1 vccd1 vssd1 sky130_ef_sc_hd__decap_12
XFILLER_44_251 vssd1 vssd1 vccd1 vccd1 sky130_fd_sc_hd__fill_1
X_488_ _243_ _244_ vssd1 vssd1 vccd1 vccd1 _057_ sky130_fd_sc_hd__nor2_1
XFILLER_8_185 vssd1 vssd1 vccd1 vccd1 sky130_fd_sc_hd__decap_8
XFILLER_35_273 vssd1 vssd1 vccd1 vccd1 sky130_fd_sc_hd__decap_6
XFILLER_5_8 vssd1 vssd1 vccd1 vccd1 sky130_fd_sc_hd__fill_2
XANTENNA_fanout66_A net72 vssd1 vssd1 vccd1 vccd1 sky130_fd_sc_hd__diode_2
XFILLER_37_99 vccd1 vssd1 vccd1 vssd1 sky130_ef_sc_hd__decap_12
X_411_ history_s0\[3\] _207_ net55 vssd1 vssd1 vccd1 vccd1 _017_ sky130_fd_sc_hd__mux2_1
X_342_ net8 _082_ vssd1 vssd1 vccd1 vccd1 _154_ sky130_fd_sc_hd__nor2_1
XFILLER_26_273 vccd1 vssd1 vccd1 vssd1 sky130_ef_sc_hd__decap_12
X_273_ net28 net20 vssd1 vssd1 vccd1 vccd1 _085_ sky130_fd_sc_hd__nand2b_1
XFILLER_5_111 vssd1 vssd1 vccd1 vccd1 sky130_fd_sc_hd__fill_1
XTAP_TAPCELL_ROW_11_157 vssd1 vccd1 sky130_fd_sc_hd__tapvpwrvgnd_1
XTAP_TAPCELL_ROW_25_227 vssd1 vccd1 sky130_fd_sc_hd__tapvpwrvgnd_1
XFILLER_23_35 vccd1 vssd1 vccd1 vssd1 sky130_ef_sc_hd__decap_12
XFILLER_23_57 vccd1 vssd1 vccd1 vssd1 sky130_ef_sc_hd__decap_12
XFILLER_14_265 vccd1 vssd1 vccd1 vssd1 sky130_ef_sc_hd__decap_12
Xfanout80 net16 vssd1 vssd1 vccd1 vccd1 net80 sky130_fd_sc_hd__dlymetal6s2s_1
X_325_ net30 net22 vssd1 vssd1 vccd1 vccd1 _137_ sky130_fd_sc_hd__and2b_1
X_256_ net11 vssd1 vssd1 vccd1 vccd1 _070_ sky130_fd_sc_hd__inv_2
XFILLER_13_90 vccd1 vssd1 vccd1 vssd1 sky130_ef_sc_hd__decap_12
XTAP_TAPCELL_ROW_30_252 vssd1 vccd1 sky130_fd_sc_hd__tapvpwrvgnd_1
XFILLER_18_35 vccd1 vssd1 vccd1 vssd1 sky130_ef_sc_hd__decap_12
XFILLER_34_89 vssd1 vssd1 vccd1 vccd1 sky130_fd_sc_hd__fill_1
Xclkload0 clknet_3_0__leaf_clk vssd1 vssd1 vccd1 vccd1 clkload0/X sky130_fd_sc_hd__clkbuf_4
XFILLER_46_165 vssd1 vssd1 vccd1 vccd1 sky130_fd_sc_hd__decap_3
XTAP_TAPCELL_ROW_44_322 vssd1 vccd1 sky130_fd_sc_hd__tapvpwrvgnd_1
X_308_ net15 net31 vssd1 vssd1 vccd1 vccd1 _120_ sky130_fd_sc_hd__xnor2_1
XFILLER_4_209 vccd1 vssd1 vccd1 vssd1 sky130_ef_sc_hd__decap_12
XFILLER_29_23 vssd1 vssd1 vccd1 vccd1 sky130_fd_sc_hd__fill_2
XFILLER_29_34 vccd1 vssd1 vccd1 vssd1 sky130_ef_sc_hd__decap_12
XFILLER_45_55 vssd1 vssd1 vccd1 vccd1 sky130_fd_sc_hd__fill_1
XFILLER_43_113 vccd1 vssd1 vccd1 vssd1 sky130_ef_sc_hd__decap_12
XFILLER_28_121 vccd1 vssd1 vccd1 vssd1 sky130_ef_sc_hd__decap_12
XFILLER_6_27 vssd1 vssd1 vccd1 vccd1 sky130_fd_sc_hd__fill_1
XFILLER_19_143 vccd1 vssd1 vccd1 vssd1 sky130_ef_sc_hd__decap_12
XANTENNA_clkbuf_0_clk_A clk vssd1 vssd1 vccd1 vccd1 sky130_fd_sc_hd__diode_2
XFILLER_25_113 vssd1 vssd1 vccd1 vccd1 sky130_fd_sc_hd__decap_4
XFILLER_31_57 vssd1 vssd1 vccd1 vccd1 sky130_fd_sc_hd__fill_1
XPHY_EDGE_ROW_19_Right_19 vssd1 vssd1 vccd1 vccd1 sky130_fd_sc_hd__decap_3
Xclkbuf_3_1__f_clk clknet_0_clk vssd1 vssd1 vccd1 vccd1 clknet_3_1__leaf_clk sky130_fd_sc_hd__clkbuf_16
XFILLER_39_205 vccd1 vssd1 vccd1 vssd1 sky130_ef_sc_hd__decap_12
XPHY_EDGE_ROW_28_Right_28 vssd1 vssd1 vccd1 vccd1 sky130_fd_sc_hd__decap_3
XFILLER_39_249 vccd1 vssd1 vccd1 vssd1 sky130_ef_sc_hd__decap_12
XPHY_EDGE_ROW_37_Right_37 vssd1 vssd1 vccd1 vccd1 sky130_fd_sc_hd__decap_3
XTAP_TAPCELL_ROW_17_185 vssd1 vccd1 sky130_fd_sc_hd__tapvpwrvgnd_1
XPHY_EDGE_ROW_46_Right_46 vssd1 vssd1 vccd1 vccd1 sky130_fd_sc_hd__decap_3
XFILLER_7_70 vssd1 vssd1 vccd1 vccd1 sky130_fd_sc_hd__fill_1
XFILLER_13_149 vccd1 vssd1 vccd1 vssd1 sky130_ef_sc_hd__decap_12
XFILLER_9_109 vssd1 vssd1 vccd1 vccd1 sky130_fd_sc_hd__decap_3
XTAP_TAPCELL_ROW_8_142 vssd1 vccd1 sky130_fd_sc_hd__tapvpwrvgnd_1
XFILLER_29_293 vssd1 vssd1 vccd1 vccd1 sky130_fd_sc_hd__decap_6
X_487_ _061_ pipeline_full latency_counter\[0\] vssd1 vssd1 vccd1 vccd1 _244_ sky130_fd_sc_hd__o21ba_1
XFILLER_8_131 vssd1 vssd1 vccd1 vccd1 sky130_fd_sc_hd__decap_4
XFILLER_12_193 vssd1 vssd1 vccd1 vccd1 sky130_fd_sc_hd__decap_3
XFILLER_27_208 vssd1 vssd1 vccd1 vccd1 sky130_fd_sc_hd__decap_8
XPHY_EDGE_ROW_19_Left_66 vssd1 vssd1 vccd1 vccd1 sky130_fd_sc_hd__decap_3
XFILLER_26_230 vssd1 vssd1 vccd1 vccd1 sky130_fd_sc_hd__decap_8
XTAP_TAPCELL_ROW_36_280 vssd1 vccd1 sky130_fd_sc_hd__tapvpwrvgnd_1
X_410_ history_s0\[2\] history_s1\[2\] net81 vssd1 vssd1 vccd1 vccd1 _207_ sky130_fd_sc_hd__mux2_1
X_341_ _067_ net31 _150_ _151_ _152_ vssd1 vssd1 vccd1 vccd1 _153_ sky130_fd_sc_hd__a221o_1
XFILLER_26_285 vccd1 vssd1 vccd1 vssd1 sky130_ef_sc_hd__decap_12
X_272_ latency_counter\[1\] latency_counter\[2\] _084_ pipeline_full vssd1 vssd1 vccd1
+ vccd1 _001_ sky130_fd_sc_hd__a31o_1
XFILLER_5_167 vssd1 vssd1 vccd1 vccd1 sky130_fd_sc_hd__fill_1
XTAP_TAPCELL_ROW_11_158 vssd1 vccd1 sky130_fd_sc_hd__tapvpwrvgnd_1
X_539_ clknet_3_5__leaf_clk _045_ net69 vssd1 vssd1 vccd1 vccd1 history_s1\[3\] sky130_fd_sc_hd__dfrtp_1
XFILLER_23_277 vssd1 vssd1 vccd1 vccd1 sky130_fd_sc_hd__decap_3
XTAP_TAPCELL_ROW_25_228 vssd1 vccd1 sky130_fd_sc_hd__tapvpwrvgnd_1
XFILLER_23_47 vssd1 vssd1 vccd1 vccd1 sky130_fd_sc_hd__decap_8
XFILLER_23_69 vccd1 vssd1 vccd1 vssd1 sky130_ef_sc_hd__decap_12
XFILLER_0_29 vccd1 vssd1 vccd1 vssd1 sky130_ef_sc_hd__decap_12
X_324_ _134_ _135_ _133_ vssd1 vssd1 vccd1 vccd1 _136_ sky130_fd_sc_hd__a21oi_1
X_255_ net28 vssd1 vssd1 vccd1 vccd1 _069_ sky130_fd_sc_hd__inv_2
Xfanout81 net82 vssd1 vssd1 vccd1 vccd1 net81 sky130_fd_sc_hd__buf_2
XFILLER_14_277 vccd1 vssd1 vccd1 vssd1 sky130_ef_sc_hd__decap_12
Xfanout70 net71 vssd1 vssd1 vccd1 vccd1 net70 sky130_fd_sc_hd__dlymetal6s2s_1
XTAP_TAPCELL_ROW_0_94 vssd1 vccd1 sky130_fd_sc_hd__tapvpwrvgnd_1