* NGSPICE file created from sync_fifo.ext - technology: sky130A

* Black-box entry subcircuit for sky130_fd_sc_hd__fill_1 abstract view
.subckt sky130_fd_sc_hd__fill_1 VGND VNB VPB VPWR
.ends

* Black-box entry subcircuit for sky130_fd_sc_hd__fill_2 abstract view
.subckt sky130_fd_sc_hd__fill_2 VGND VNB VPB VPWR
.ends

* Black-box entry subcircuit for sky130_fd_sc_hd__diode_2 abstract view
.subckt sky130_fd_sc_hd__diode_2 DIODE VGND VNB VPB VPWR
.ends

* Black-box entry subcircuit for sky130_ef_sc_hd__decap_12 abstract view
.subckt sky130_ef_sc_hd__decap_12 VPWR VGND VPB VNB
.ends

* Black-box entry subcircuit for sky130_fd_sc_hd__tapvpwrvgnd_1 abstract view
.subckt sky130_fd_sc_hd__tapvpwrvgnd_1 VGND VPWR
.ends

* Black-box entry subcircuit for sky130_fd_sc_hd__decap_8 abstract view
.subckt sky130_fd_sc_hd__decap_8 VGND VNB VPB VPWR
.ends

* Black-box entry subcircuit for sky130_fd_sc_hd__dfxtp_1 abstract view
.subckt sky130_fd_sc_hd__dfxtp_1 CLK D VGND VNB VPB VPWR Q
.ends

* Black-box entry subcircuit for sky130_fd_sc_hd__mux2_1 abstract view
.subckt sky130_fd_sc_hd__mux2_1 A0 A1 S VGND VNB VPB VPWR X
.ends

* Black-box entry subcircuit for sky130_fd_sc_hd__buf_1 abstract view
.subckt sky130_fd_sc_hd__buf_1 A VGND VNB VPB VPWR X
.ends

* Black-box entry subcircuit for sky130_fd_sc_hd__clkbuf_2 abstract view
.subckt sky130_fd_sc_hd__clkbuf_2 A VGND VNB VPB VPWR X
.ends

* Black-box entry subcircuit for sky130_fd_sc_hd__clkbuf_4 abstract view
.subckt sky130_fd_sc_hd__clkbuf_4 A VGND VNB VPB VPWR X
.ends

* Black-box entry subcircuit for sky130_fd_sc_hd__buf_2 abstract view
.subckt sky130_fd_sc_hd__buf_2 A VGND VNB VPB VPWR X
.ends

* Black-box entry subcircuit for sky130_fd_sc_hd__decap_4 abstract view
.subckt sky130_fd_sc_hd__decap_4 VGND VNB VPB VPWR
.ends

* Black-box entry subcircuit for sky130_fd_sc_hd__decap_6 abstract view
.subckt sky130_fd_sc_hd__decap_6 VGND VNB VPB VPWR
.ends

* Black-box entry subcircuit for sky130_fd_sc_hd__a221o_1 abstract view
.subckt sky130_fd_sc_hd__a221o_1 A1 A2 B1 B2 C1 VGND VNB VPB VPWR X
.ends

* Black-box entry subcircuit for sky130_fd_sc_hd__xnor2_1 abstract view
.subckt sky130_fd_sc_hd__xnor2_1 A B VGND VNB VPB VPWR Y
.ends

* Black-box entry subcircuit for sky130_fd_sc_hd__o221a_1 abstract view
.subckt sky130_fd_sc_hd__o221a_1 A1 A2 B1 B2 C1 VGND VNB VPB VPWR X
.ends

* Black-box entry subcircuit for sky130_fd_sc_hd__inv_2 abstract view
.subckt sky130_fd_sc_hd__inv_2 A VGND VNB VPB VPWR Y
.ends

* Black-box entry subcircuit for sky130_fd_sc_hd__a22o_1 abstract view
.subckt sky130_fd_sc_hd__a22o_1 A1 A2 B1 B2 VGND VNB VPB VPWR X
.ends

* Black-box entry subcircuit for sky130_fd_sc_hd__buf_4 abstract view
.subckt sky130_fd_sc_hd__buf_4 A VGND VNB VPB VPWR X
.ends

* Black-box entry subcircuit for sky130_fd_sc_hd__decap_3 abstract view
.subckt sky130_fd_sc_hd__decap_3 VGND VNB VPB VPWR
.ends

* Black-box entry subcircuit for sky130_fd_sc_hd__a21o_1 abstract view
.subckt sky130_fd_sc_hd__a21o_1 A1 A2 B1 VGND VNB VPB VPWR X
.ends

* Black-box entry subcircuit for sky130_fd_sc_hd__or4_1 abstract view
.subckt sky130_fd_sc_hd__or4_1 A B C D VGND VNB VPB VPWR X
.ends

* Black-box entry subcircuit for sky130_fd_sc_hd__dlymetal6s2s_1 abstract view
.subckt sky130_fd_sc_hd__dlymetal6s2s_1 A VGND VNB VPB VPWR X
.ends

* Black-box entry subcircuit for sky130_fd_sc_hd__a21oi_1 abstract view
.subckt sky130_fd_sc_hd__a21oi_1 A1 A2 B1 VGND VNB VPB VPWR Y
.ends

* Black-box entry subcircuit for sky130_fd_sc_hd__a211o_1 abstract view
.subckt sky130_fd_sc_hd__a211o_1 A1 A2 B1 C1 VGND VNB VPB VPWR X
.ends

* Black-box entry subcircuit for sky130_fd_sc_hd__xor2_1 abstract view
.subckt sky130_fd_sc_hd__xor2_1 A B VGND VNB VPB VPWR X
.ends

* Black-box entry subcircuit for sky130_fd_sc_hd__or3_1 abstract view
.subckt sky130_fd_sc_hd__or3_1 A B C VGND VNB VPB VPWR X
.ends

* Black-box entry subcircuit for sky130_fd_sc_hd__clkbuf_8 abstract view
.subckt sky130_fd_sc_hd__clkbuf_8 A VGND VNB VPB VPWR X
.ends

* Black-box entry subcircuit for sky130_fd_sc_hd__clkinvlp_4 abstract view
.subckt sky130_fd_sc_hd__clkinvlp_4 A VGND VNB VPB VPWR Y
.ends

* Black-box entry subcircuit for sky130_fd_sc_hd__dfrtp_1 abstract view
.subckt sky130_fd_sc_hd__dfrtp_1 CLK D RESET_B VGND VNB VPB VPWR Q
.ends

* Black-box entry subcircuit for sky130_fd_sc_hd__and4bb_2 abstract view
.subckt sky130_fd_sc_hd__and4bb_2 A_N B_N C D VGND VNB VPB VPWR X
.ends

* Black-box entry subcircuit for sky130_fd_sc_hd__inv_6 abstract view
.subckt sky130_fd_sc_hd__inv_6 A VGND VNB VPB VPWR Y
.ends

* Black-box entry subcircuit for sky130_fd_sc_hd__and2_1 abstract view
.subckt sky130_fd_sc_hd__and2_1 A B VGND VNB VPB VPWR X
.ends

* Black-box entry subcircuit for sky130_fd_sc_hd__and4b_1 abstract view
.subckt sky130_fd_sc_hd__and4b_1 A_N B C D VGND VNB VPB VPWR X
.ends

* Black-box entry subcircuit for sky130_fd_sc_hd__inv_4 abstract view
.subckt sky130_fd_sc_hd__inv_4 A VGND VNB VPB VPWR Y
.ends

* Black-box entry subcircuit for sky130_fd_sc_hd__clkbuf_16 abstract view
.subckt sky130_fd_sc_hd__clkbuf_16 A VGND VNB VPB VPWR X
.ends

* Black-box entry subcircuit for sky130_fd_sc_hd__and4bb_1 abstract view
.subckt sky130_fd_sc_hd__and4bb_1 A_N B_N C D VGND VNB VPB VPWR X
.ends

* Black-box entry subcircuit for sky130_fd_sc_hd__clkinv_2 abstract view
.subckt sky130_fd_sc_hd__clkinv_2 A VGND VNB VPB VPWR Y
.ends

* Black-box entry subcircuit for sky130_fd_sc_hd__clkinv_4 abstract view
.subckt sky130_fd_sc_hd__clkinv_4 A VGND VNB VPB VPWR Y
.ends

* Black-box entry subcircuit for sky130_fd_sc_hd__nor4_1 abstract view
.subckt sky130_fd_sc_hd__nor4_1 A B C D VGND VNB VPB VPWR Y
.ends

* Black-box entry subcircuit for sky130_fd_sc_hd__inv_8 abstract view
.subckt sky130_fd_sc_hd__inv_8 A VGND VNB VPB VPWR Y
.ends

* Black-box entry subcircuit for sky130_fd_sc_hd__nor4b_1 abstract view
.subckt sky130_fd_sc_hd__nor4b_1 A B C D_N VGND VNB VPB VPWR Y
.ends

* Black-box entry subcircuit for sky130_fd_sc_hd__nand2_1 abstract view
.subckt sky130_fd_sc_hd__nand2_1 A B VGND VNB VPB VPWR Y
.ends

* Black-box entry subcircuit for sky130_fd_sc_hd__nor2_1 abstract view
.subckt sky130_fd_sc_hd__nor2_1 A B VGND VNB VPB VPWR Y
.ends

* Black-box entry subcircuit for sky130_fd_sc_hd__and3_1 abstract view
.subckt sky130_fd_sc_hd__and3_1 A B C VGND VNB VPB VPWR X
.ends

* Black-box entry subcircuit for sky130_fd_sc_hd__bufinv_16 abstract view
.subckt sky130_fd_sc_hd__bufinv_16 A VGND VNB VPB VPWR Y
.ends

* Black-box entry subcircuit for sky130_fd_sc_hd__nor2_2 abstract view
.subckt sky130_fd_sc_hd__nor2_2 A B VGND VNB VPB VPWR Y
.ends

* Black-box entry subcircuit for sky130_fd_sc_hd__nand3b_1 abstract view
.subckt sky130_fd_sc_hd__nand3b_1 A_N B C VGND VNB VPB VPWR Y
.ends

* Black-box entry subcircuit for sky130_fd_sc_hd__clkbuf_1 abstract view
.subckt sky130_fd_sc_hd__clkbuf_1 A VGND VNB VPB VPWR X
.ends

* Black-box entry subcircuit for sky130_fd_sc_hd__or4b_2 abstract view
.subckt sky130_fd_sc_hd__or4b_2 A B C D_N VGND VNB VPB VPWR X
.ends

* Black-box entry subcircuit for sky130_fd_sc_hd__nand4_2 abstract view
.subckt sky130_fd_sc_hd__nand4_2 A B C D VGND VNB VPB VPWR Y
.ends

* Black-box entry subcircuit for sky130_fd_sc_hd__nand2b_1 abstract view
.subckt sky130_fd_sc_hd__nand2b_1 A_N B VGND VNB VPB VPWR Y
.ends

* Black-box entry subcircuit for sky130_fd_sc_hd__or3b_1 abstract view
.subckt sky130_fd_sc_hd__or3b_1 A B C_N VGND VNB VPB VPWR X
.ends

* Black-box entry subcircuit for sky130_fd_sc_hd__or2_2 abstract view
.subckt sky130_fd_sc_hd__or2_2 A B VGND VNB VPB VPWR X
.ends

* Black-box entry subcircuit for sky130_fd_sc_hd__or2_1 abstract view
.subckt sky130_fd_sc_hd__or2_1 A B VGND VNB VPB VPWR X
.ends

* Black-box entry subcircuit for sky130_fd_sc_hd__nand3b_2 abstract view
.subckt sky130_fd_sc_hd__nand3b_2 A_N B C VGND VNB VPB VPWR Y
.ends

* Black-box entry subcircuit for sky130_fd_sc_hd__dfrtp_2 abstract view
.subckt sky130_fd_sc_hd__dfrtp_2 CLK D RESET_B VGND VNB VPB VPWR Q
.ends

* Black-box entry subcircuit for sky130_fd_sc_hd__and4_1 abstract view
.subckt sky130_fd_sc_hd__and4_1 A B C D VGND VNB VPB VPWR X
.ends

* Black-box entry subcircuit for sky130_fd_sc_hd__o21a_1 abstract view
.subckt sky130_fd_sc_hd__o21a_1 A1 A2 B1 VGND VNB VPB VPWR X
.ends

* Black-box entry subcircuit for sky130_fd_sc_hd__a31o_1 abstract view
.subckt sky130_fd_sc_hd__a31o_1 A1 A2 A3 B1 VGND VNB VPB VPWR X
.ends

* Black-box entry subcircuit for sky130_fd_sc_hd__o21ai_1 abstract view
.subckt sky130_fd_sc_hd__o21ai_1 A1 A2 B1 VGND VNB VPB VPWR Y
.ends

* Black-box entry subcircuit for sky130_fd_sc_hd__a32o_1 abstract view
.subckt sky130_fd_sc_hd__a32o_1 A1 A2 A3 B1 B2 VGND VNB VPB VPWR X
.ends

* Black-box entry subcircuit for sky130_fd_sc_hd__o21a_2 abstract view
.subckt sky130_fd_sc_hd__o21a_2 A1 A2 B1 VGND VNB VPB VPWR X
.ends

* Black-box entry subcircuit for sky130_fd_sc_hd__a2111o_1 abstract view
.subckt sky130_fd_sc_hd__a2111o_1 A1 A2 B1 C1 D1 VGND VNB VPB VPWR X
.ends

* Black-box entry subcircuit for sky130_fd_sc_hd__or4_2 abstract view
.subckt sky130_fd_sc_hd__or4_2 A B C D VGND VNB VPB VPWR X
.ends

.subckt sync_fifo clk empty_o full_o rd_data_o[0] rd_data_o[10] rd_data_o[11] rd_data_o[12]
+ rd_data_o[13] rd_data_o[14] rd_data_o[15] rd_data_o[1] rd_data_o[2] rd_data_o[3]
+ rd_data_o[4] rd_data_o[5] rd_data_o[6] rd_data_o[7] rd_data_o[8] rd_data_o[9] rd_en_i
+ rst_n vccd1 vssd1 wr_data_i[0] wr_data_i[10] wr_data_i[11] wr_data_i[12] wr_data_i[13]
+ wr_data_i[14] wr_data_i[15] wr_data_i[1] wr_data_i[2] wr_data_i[3] wr_data_i[4]
+ wr_data_i[5] wr_data_i[6] wr_data_i[7] wr_data_i[8] wr_data_i[9] wr_en_i
XFILLER_54_236 vssd1 vssd1 vccd1 vccd1 sky130_fd_sc_hd__fill_1
XFILLER_52_29 vssd1 vssd1 vccd1 vccd1 sky130_fd_sc_hd__fill_2
XANTENNA__0717__B1 net97 vssd1 vssd1 vccd1 vccd1 sky130_fd_sc_hd__diode_2
XANTENNA_fanout75_A net77 vssd1 vssd1 vccd1 vccd1 sky130_fd_sc_hd__diode_2
XFILLER_60_217 vccd1 vssd1 vccd1 vssd1 sky130_ef_sc_hd__decap_12
XFILLER_53_291 vssd1 vssd1 vccd1 vccd1 sky130_fd_sc_hd__fill_2
XFILLER_45_203 vssd1 vssd1 vccd1 vccd1 sky130_fd_sc_hd__fill_2
XTAP_TAPCELL_ROW_43_415 vssd1 vccd1 sky130_fd_sc_hd__tapvpwrvgnd_1
XFILLER_26_85 vccd1 vssd1 vccd1 vssd1 sky130_ef_sc_hd__decap_12
XFILLER_13_166 vssd1 vssd1 vccd1 vccd1 sky130_fd_sc_hd__fill_2
XANTENNA__0708__B1 net116 vssd1 vssd1 vccd1 vccd1 sky130_fd_sc_hd__diode_2
XFILLER_47_8 vssd1 vssd1 vccd1 vccd1 sky130_fd_sc_hd__decap_8
X_1270_ clknet_leaf_15_clk _0230_ vssd1 vssd1 vccd1 vccd1 mem\[12\]\[9\] sky130_fd_sc_hd__dfxtp_1
X_0985_ mem\[12\]\[12\] net191 net50 vssd1 vssd1 vccd1 vccd1 _0233_ sky130_fd_sc_hd__mux2_1
XFILLER_8_181 vssd1 vssd1 vccd1 vccd1 sky130_fd_sc_hd__fill_1
Xfanout138 net139 vssd1 vssd1 vccd1 vccd1 net138 sky130_fd_sc_hd__buf_1
Xfanout105 _0330_ vssd1 vssd1 vccd1 vccd1 net105 sky130_fd_sc_hd__clkbuf_2
Xfanout116 _0326_ vssd1 vssd1 vccd1 vccd1 net116 sky130_fd_sc_hd__clkbuf_4
Xfanout127 net130 vssd1 vssd1 vccd1 vccd1 net127 sky130_fd_sc_hd__clkbuf_2
Xfanout149 net150 vssd1 vssd1 vccd1 vccd1 net149 sky130_fd_sc_hd__buf_2
XFILLER_27_203 vssd1 vssd1 vccd1 vccd1 sky130_fd_sc_hd__fill_1
XANTENNA__0650__A2 net149 vssd1 vssd1 vccd1 vccd1 sky130_fd_sc_hd__diode_2
XFILLER_2_357 vssd1 vssd1 vccd1 vccd1 sky130_fd_sc_hd__fill_1
XFILLER_58_350 vssd1 vssd1 vccd1 vccd1 sky130_fd_sc_hd__decap_8
XFILLER_37_73 vssd1 vssd1 vccd1 vccd1 sky130_fd_sc_hd__fill_1
XFILLER_37_51 vssd1 vssd1 vccd1 vccd1 sky130_fd_sc_hd__decap_4
XANTENNA_fanout78_X net78 vssd1 vssd1 vccd1 vccd1 sky130_fd_sc_hd__diode_2
XFILLER_33_239 vssd1 vssd1 vccd1 vccd1 sky130_fd_sc_hd__decap_8
XFILLER_26_291 vssd1 vssd1 vccd1 vccd1 sky130_fd_sc_hd__decap_6
XANTENNA__0626__C1 net156 vssd1 vssd1 vccd1 vccd1 sky130_fd_sc_hd__diode_2
XANTENNA__0641__A2 net140 vssd1 vssd1 vccd1 vccd1 sky130_fd_sc_hd__diode_2
X_0770_ net223 mem\[0\]\[6\] net87 vssd1 vssd1 vccd1 vccd1 _0035_ sky130_fd_sc_hd__mux2_1
X_1322_ clknet_leaf_7_clk _0282_ vssd1 vssd1 vccd1 vccd1 mem\[15\]\[13\] sky130_fd_sc_hd__dfxtp_1
X_1253_ clknet_leaf_3_clk _0213_ vssd1 vssd1 vccd1 vccd1 mem\[11\]\[8\] sky130_fd_sc_hd__dfxtp_1
XFILLER_49_361 vssd1 vssd1 vccd1 vccd1 sky130_fd_sc_hd__decap_8
XFILLER_24_217 vssd1 vssd1 vccd1 vccd1 sky130_fd_sc_hd__fill_2
X_1184_ clknet_leaf_23_clk _0144_ vssd1 vssd1 vccd1 vccd1 mem\[7\]\[3\] sky130_fd_sc_hd__dfxtp_1
XFILLER_17_291 vssd1 vssd1 vccd1 vccd1 sky130_fd_sc_hd__fill_1
X_0968_ mem\[11\]\[13\] net187 net53 vssd1 vssd1 vccd1 vccd1 _0218_ sky130_fd_sc_hd__mux2_1
XANTENNA__0952__S net57 vssd1 vssd1 vccd1 vccd1 sky130_fd_sc_hd__diode_2
XFILLER_32_283 vssd1 vssd1 vccd1 vccd1 sky130_fd_sc_hd__decap_4
XANTENNA__0632__A2 net113 vssd1 vssd1 vccd1 vccd1 sky130_fd_sc_hd__diode_2
X_0899_ mem\[7\]\[13\] net189 net65 vssd1 vssd1 vccd1 vccd1 _0154_ sky130_fd_sc_hd__mux2_1
XFILLER_59_169 vccd1 vssd1 vccd1 vssd1 sky130_ef_sc_hd__decap_12
XFILLER_47_309 vccd1 vssd1 vccd1 vssd1 sky130_ef_sc_hd__decap_12
XTAP_TAPCELL_ROW_2_143 vssd1 vccd1 sky130_fd_sc_hd__tapvpwrvgnd_1
XANTENNA__0862__S net72 vssd1 vssd1 vccd1 vccd1 sky130_fd_sc_hd__diode_2
XANTENNA_fanout38_A net40 vssd1 vssd1 vccd1 vccd1 sky130_fd_sc_hd__diode_2
XANTENNA__0623__A2 net151 vssd1 vssd1 vccd1 vccd1 sky130_fd_sc_hd__diode_2
XFILLER_2_165 vccd1 vssd1 vccd1 vssd1 sky130_ef_sc_hd__decap_12
XFILLER_2_121 vccd1 vssd1 vccd1 vssd1 sky130_ef_sc_hd__decap_12
XFILLER_48_72 vccd1 vssd1 vccd1 vssd1 sky130_ef_sc_hd__decap_12
XFILLER_0_57 vccd1 vssd1 vccd1 vssd1 sky130_ef_sc_hd__decap_12
XANTENNA__0772__S net88 vssd1 vssd1 vccd1 vccd1 sky130_fd_sc_hd__diode_2
X_0822_ net227 mem\[3\]\[5\] net80 vssd1 vssd1 vccd1 vccd1 _0082_ sky130_fd_sc_hd__mux2_1
XFILLER_9_11 vccd1 vssd1 vccd1 vssd1 sky130_ef_sc_hd__decap_12
XFILLER_9_55 vssd1 vssd1 vccd1 vccd1 sky130_fd_sc_hd__fill_1
XTAP_TAPCELL_ROW_16_234 vssd1 vccd1 sky130_fd_sc_hd__tapvpwrvgnd_1
XFILLER_50_3 vssd1 vssd1 vccd1 vccd1 sky130_fd_sc_hd__decap_8
X_0684_ mem\[3\]\[10\] net118 net158 mem\[1\]\[10\] _0436_ vssd1 vssd1 vccd1 vccd1
+ _0440_ sky130_fd_sc_hd__a221o_1
X_0753_ net163 net120 vssd1 vssd1 vccd1 vccd1 _0025_ sky130_fd_sc_hd__xnor2_1
X_1305_ clknet_leaf_12_clk _0265_ vssd1 vssd1 vccd1 vccd1 mem\[14\]\[12\] sky130_fd_sc_hd__dfxtp_1
XANTENNA__0947__S net57 vssd1 vssd1 vccd1 vccd1 sky130_fd_sc_hd__diode_2
XFILLER_37_331 vssd1 vssd1 vccd1 vccd1 sky130_fd_sc_hd__decap_4
X_1236_ clknet_leaf_15_clk _0196_ vssd1 vssd1 vccd1 vccd1 mem\[10\]\[7\] sky130_fd_sc_hd__dfxtp_1
XFILLER_29_309 vssd1 vssd1 vccd1 vccd1 sky130_fd_sc_hd__decap_6
X_1098_ clknet_leaf_7_clk _0058_ vssd1 vssd1 vccd1 vccd1 mem\[1\]\[13\] sky130_fd_sc_hd__dfxtp_1
XANTENNA_fanout242_A net243 vssd1 vssd1 vccd1 vccd1 sky130_fd_sc_hd__diode_2
X_1167_ clknet_leaf_1_clk _0127_ vssd1 vssd1 vccd1 vccd1 mem\[6\]\[2\] sky130_fd_sc_hd__dfxtp_1
XFILLER_60_29 vccd1 vssd1 vccd1 vssd1 sky130_ef_sc_hd__decap_12
XANTENNA_fanout128_X net128 vssd1 vssd1 vccd1 vccd1 sky130_fd_sc_hd__diode_2
XANTENNA__0605__A2 net110 vssd1 vssd1 vccd1 vccd1 sky130_fd_sc_hd__diode_2
XANTENNA_input2_X net2 vssd1 vssd1 vccd1 vccd1 sky130_fd_sc_hd__diode_2
XFILLER_43_334 vssd1 vssd1 vccd1 vccd1 sky130_fd_sc_hd__fill_2
XTAP_TAPCELL_ROW_38_381 vssd1 vccd1 sky130_fd_sc_hd__tapvpwrvgnd_1
XTAP_TAPCELL_ROW_13_215 vssd1 vccd1 sky130_fd_sc_hd__tapvpwrvgnd_1
XTAP_TAPCELL_ROW_21_270 vssd1 vccd1 sky130_fd_sc_hd__tapvpwrvgnd_1
XANTENNA__0767__S net87 vssd1 vssd1 vccd1 vccd1 sky130_fd_sc_hd__diode_2
XFILLER_61_153 vccd1 vssd1 vccd1 vssd1 sky130_ef_sc_hd__decap_12
X_1021_ mem\[14\]\[14\] net185 net43 vssd1 vssd1 vccd1 vccd1 _0267_ sky130_fd_sc_hd__mux2_1
XFILLER_34_334 vccd1 vssd1 vccd1 vssd1 sky130_ef_sc_hd__decap_12
X_0805_ net226 mem\[2\]\[5\] net83 vssd1 vssd1 vccd1 vccd1 _0066_ sky130_fd_sc_hd__mux2_1
X_0736_ mem\[3\]\[15\] net118 net106 mem\[8\]\[15\] _0486_ vssd1 vssd1 vccd1 vccd1
+ _0487_ sky130_fd_sc_hd__a221o_1
X_0667_ mem\[0\]\[8\] net152 _0417_ _0424_ net128 vssd1 vssd1 vccd1 vccd1 _0425_ sky130_fd_sc_hd__o221a_1
X_0598_ mem\[1\]\[2\] net157 net114 mem\[6\]\[2\] _0361_ vssd1 vssd1 vccd1 vccd1 _0362_
+ sky130_fd_sc_hd__a221o_1
XANTENNA_fanout192_A net6 vssd1 vssd1 vccd1 vccd1 sky130_fd_sc_hd__diode_2
X_1219_ clknet_leaf_1_clk _0179_ vssd1 vssd1 vccd1 vccd1 mem\[9\]\[6\] sky130_fd_sc_hd__dfxtp_1
XTAP_TAPCELL_ROW_27_307 vssd1 vccd1 sky130_fd_sc_hd__tapvpwrvgnd_1
XTAP_TAPCELL_ROW_35_362 vssd1 vccd1 sky130_fd_sc_hd__tapvpwrvgnd_1
XFILLER_29_96 vssd1 vssd1 vccd1 vccd1 sky130_fd_sc_hd__decap_4
XANTENNA_fanout60_X net60 vssd1 vssd1 vccd1 vccd1 sky130_fd_sc_hd__diode_2
XANTENNA_input18_A wr_data_i[9] vssd1 vssd1 vccd1 vccd1 sky130_fd_sc_hd__diode_2
XFILLER_16_323 vccd1 vssd1 vccd1 vssd1 sky130_ef_sc_hd__decap_12
XTAP_TAPCELL_ROW_41_398 vssd1 vccd1 sky130_fd_sc_hd__tapvpwrvgnd_1
X_0521_ net166 vssd1 vssd1 vccd1 vccd1 _0294_ sky130_fd_sc_hd__inv_2
XFILLER_3_293 vssd1 vssd1 vccd1 vccd1 sky130_fd_sc_hd__decap_4
XTAP_TAPCELL_ROW_49_454 vssd1 vccd1 sky130_fd_sc_hd__tapvpwrvgnd_1
XFILLER_13_3 vccd1 vssd1 vccd1 vssd1 sky130_ef_sc_hd__decap_12
X_1004_ mem\[13\]\[14\] net182 net46 vssd1 vssd1 vccd1 vccd1 _0251_ sky130_fd_sc_hd__mux2_1
XFILLER_34_197 vssd1 vssd1 vccd1 vccd1 sky130_fd_sc_hd__fill_2
XTAP_TAPCELL_ROW_32_343 vssd1 vccd1 sky130_fd_sc_hd__tapvpwrvgnd_1
XANTENNA__0960__S net52 vssd1 vssd1 vccd1 vccd1 sky130_fd_sc_hd__diode_2
XFILLER_57_223 vssd1 vssd1 vccd1 vccd1 sky130_fd_sc_hd__fill_1
XFILLER_57_201 vssd1 vssd1 vccd1 vccd1 sky130_fd_sc_hd__decap_8
X_0719_ mem\[14\]\[13\] net148 net131 mem\[13\]\[13\] vssd1 vssd1 vccd1 vccd1 _0472_
+ sky130_fd_sc_hd__a22o_1
XANTENNA_fanout195_X net195 vssd1 vssd1 vccd1 vccd1 sky130_fd_sc_hd__diode_2
XANTENNA__0680__B1 net106 vssd1 vssd1 vccd1 vccd1 sky130_fd_sc_hd__diode_2
XFILLER_40_189 vssd1 vssd1 vccd1 vccd1 sky130_fd_sc_hd__decap_6
XANTENNA__1031__S net40 vssd1 vssd1 vccd1 vccd1 sky130_fd_sc_hd__diode_2
XFILLER_13_337 vccd1 vssd1 vccd1 vssd1 sky130_ef_sc_hd__decap_12
XANTENNA__0870__S net67 vssd1 vssd1 vccd1 vccd1 sky130_fd_sc_hd__diode_2
Xoutput20 net20 vssd1 vssd1 vccd1 vccd1 empty_o sky130_fd_sc_hd__buf_4
Xoutput31 net31 vssd1 vssd1 vccd1 vccd1 rd_data_o[3] sky130_fd_sc_hd__buf_4
XTAP_TAPCELL_ROW_46_435 vssd1 vccd1 sky130_fd_sc_hd__tapvpwrvgnd_1
XANTENNA__0671__B1 net159 vssd1 vssd1 vccd1 vccd1 sky130_fd_sc_hd__diode_2
XFILLER_31_167 vssd1 vssd1 vccd1 vccd1 sky130_fd_sc_hd__fill_1
XFILLER_31_145 vssd1 vssd1 vccd1 vccd1 sky130_fd_sc_hd__fill_1
XFILLER_16_197 vssd1 vssd1 vccd1 vccd1 sky130_fd_sc_hd__decap_4
XANTENNA__0974__A1 net243 vssd1 vssd1 vccd1 vccd1 sky130_fd_sc_hd__diode_2
XFILLER_54_248 vssd1 vssd1 vccd1 vccd1 sky130_fd_sc_hd__decap_4
XANTENNA__0955__S net52 vssd1 vssd1 vccd1 vccd1 sky130_fd_sc_hd__diode_2
XANTENNA_fanout155_A net156 vssd1 vssd1 vccd1 vccd1 sky130_fd_sc_hd__diode_2
XANTENNA__0662__B1 net92 vssd1 vssd1 vccd1 vccd1 sky130_fd_sc_hd__diode_2
XFILLER_10_329 vssd1 vssd1 vccd1 vccd1 sky130_fd_sc_hd__decap_4
XANTENNA_fanout208_X net208 vssd1 vssd1 vccd1 vccd1 sky130_fd_sc_hd__diode_2
XANTENNA_fanout110_X net110 vssd1 vssd1 vccd1 vccd1 sky130_fd_sc_hd__diode_2
XANTENNA__0865__S net72 vssd1 vssd1 vccd1 vccd1 sky130_fd_sc_hd__diode_2
XANTENNA__1026__S net38 vssd1 vssd1 vccd1 vccd1 sky130_fd_sc_hd__diode_2
XANTENNA_fanout68_A net69 vssd1 vssd1 vccd1 vccd1 sky130_fd_sc_hd__diode_2
XANTENNA__0653__B1 net136 vssd1 vssd1 vccd1 vccd1 sky130_fd_sc_hd__diode_2
XFILLER_26_97 vssd1 vssd1 vccd1 vccd1 sky130_fd_sc_hd__decap_4
XFILLER_26_20 vssd1 vssd1 vccd1 vccd1 sky130_fd_sc_hd__fill_2
XANTENNA_clkbuf_leaf_5_clk_A clknet_2_1__leaf_clk vssd1 vssd1 vccd1 vccd1 sky130_fd_sc_hd__diode_2
XFILLER_5_333 vssd1 vssd1 vccd1 vccd1 sky130_fd_sc_hd__decap_3
XFILLER_3_57 vccd1 vssd1 vccd1 vssd1 sky130_ef_sc_hd__decap_12
XTAP_TAPCELL_ROW_8_182 vssd1 vccd1 sky130_fd_sc_hd__tapvpwrvgnd_1
X_0984_ mem\[12\]\[11\] net195 net50 vssd1 vssd1 vccd1 vccd1 _0232_ sky130_fd_sc_hd__mux2_1
XANTENNA__0947__A1 net18 vssd1 vssd1 vccd1 vccd1 sky130_fd_sc_hd__diode_2
XFILLER_8_193 vssd1 vssd1 vccd1 vccd1 sky130_fd_sc_hd__decap_3
Xfanout106 net109 vssd1 vssd1 vccd1 vccd1 net106 sky130_fd_sc_hd__buf_2
Xfanout139 _0325_ vssd1 vssd1 vccd1 vccd1 net139 sky130_fd_sc_hd__buf_2
Xfanout128 net130 vssd1 vssd1 vccd1 vccd1 net128 sky130_fd_sc_hd__buf_2
Xfanout117 net119 vssd1 vssd1 vccd1 vccd1 net117 sky130_fd_sc_hd__clkbuf_2
XFILLER_27_215 vssd1 vssd1 vccd1 vccd1 sky130_fd_sc_hd__decap_6
XANTENNA_fanout158_X net158 vssd1 vssd1 vccd1 vccd1 sky130_fd_sc_hd__diode_2
XFILLER_35_281 vssd1 vssd1 vccd1 vccd1 sky130_fd_sc_hd__decap_4
XTAP_TAPCELL_ROW_5_163 vssd1 vccd1 sky130_fd_sc_hd__tapvpwrvgnd_1
XFILLER_53_73 vssd1 vssd1 vccd1 vccd1 sky130_fd_sc_hd__decap_3
XFILLER_53_51 vssd1 vssd1 vccd1 vccd1 sky130_fd_sc_hd__decap_4
XFILLER_26_270 vssd1 vssd1 vccd1 vccd1 sky130_fd_sc_hd__fill_1
X_1321_ clknet_leaf_11_clk _0281_ vssd1 vssd1 vccd1 vccd1 mem\[15\]\[12\] sky130_fd_sc_hd__dfxtp_1
X_1252_ clknet_leaf_10_clk _0212_ vssd1 vssd1 vccd1 vccd1 mem\[11\]\[7\] sky130_fd_sc_hd__dfxtp_1
XANTENNA__0617__B1 net103 vssd1 vssd1 vccd1 vccd1 sky130_fd_sc_hd__diode_2
XFILLER_17_281 vssd1 vssd1 vccd1 vccd1 sky130_fd_sc_hd__fill_1
XTAP_TAPCELL_ROW_19_254 vssd1 vccd1 sky130_fd_sc_hd__tapvpwrvgnd_1
X_1183_ clknet_leaf_25_clk _0143_ vssd1 vssd1 vccd1 vccd1 mem\[7\]\[2\] sky130_fd_sc_hd__dfxtp_1
X_0967_ mem\[11\]\[12\] net191 net54 vssd1 vssd1 vccd1 vccd1 _0217_ sky130_fd_sc_hd__mux2_1
XFILLER_32_251 vssd1 vssd1 vccd1 vccd1 sky130_fd_sc_hd__fill_1
X_0898_ mem\[7\]\[12\] net191 net65 vssd1 vssd1 vccd1 vccd1 _0153_ sky130_fd_sc_hd__mux2_1
XFILLER_59_115 vssd1 vssd1 vccd1 vccd1 sky130_fd_sc_hd__decap_3
XFILLER_58_29 vccd1 vssd1 vccd1 vssd1 sky130_ef_sc_hd__decap_12
XANTENNA_fanout118_A net119 vssd1 vssd1 vccd1 vccd1 sky130_fd_sc_hd__diode_2
XPHY_EDGE_ROW_12_Right_12 vssd1 vssd1 vccd1 vccd1 sky130_fd_sc_hd__decap_3
XTAP_TAPCELL_ROW_2_144 vssd1 vccd1 sky130_fd_sc_hd__tapvpwrvgnd_1
XPHY_EDGE_ROW_21_Right_21 vssd1 vssd1 vccd1 vccd1 sky130_fd_sc_hd__decap_3
XFILLER_23_10 vssd1 vssd1 vccd1 vccd1 sky130_fd_sc_hd__decap_8
XFILLER_23_54 vssd1 vssd1 vccd1 vccd1 sky130_fd_sc_hd__fill_2
XPHY_EDGE_ROW_30_Right_30 vssd1 vssd1 vccd1 vccd1 sky130_fd_sc_hd__decap_3
XFILLER_23_65 vssd1 vssd1 vccd1 vccd1 sky130_fd_sc_hd__decap_3
XFILLER_48_51 vssd1 vssd1 vccd1 vccd1 sky130_fd_sc_hd__decap_4
XFILLER_2_177 vccd1 vssd1 vccd1 vssd1 sky130_ef_sc_hd__decap_12
XFILLER_2_133 vssd1 vssd1 vccd1 vccd1 sky130_fd_sc_hd__decap_6
XANTENNA_fanout90_X net90 vssd1 vssd1 vccd1 vccd1 sky130_fd_sc_hd__diode_2
XFILLER_61_357 vssd1 vssd1 vccd1 vccd1 sky130_fd_sc_hd__fill_1
XFILLER_58_170 vssd1 vssd1 vccd1 vccd1 sky130_fd_sc_hd__decap_6
XFILLER_46_365 vssd1 vssd1 vccd1 vccd1 sky130_fd_sc_hd__decap_4
XFILLER_0_69 vccd1 vssd1 vccd1 vssd1 sky130_ef_sc_hd__decap_12
XTAP_TAPCELL_ROW_16_235 vssd1 vccd1 sky130_fd_sc_hd__tapvpwrvgnd_1
X_0752_ net130 net96 _0498_ vssd1 vssd1 vccd1 vccd1 _0024_ sky130_fd_sc_hd__a21o_1
XTAP_TAPCELL_ROW_24_290 vssd1 vccd1 sky130_fd_sc_hd__tapvpwrvgnd_1
XFILLER_9_23 vccd1 vssd1 vccd1 vssd1 sky130_ef_sc_hd__decap_12
XFILLER_14_251 vssd1 vssd1 vccd1 vccd1 sky130_fd_sc_hd__fill_1
X_0821_ net231 mem\[3\]\[4\] net78 vssd1 vssd1 vccd1 vccd1 _0081_ sky130_fd_sc_hd__mux2_1
X_0683_ mem\[9\]\[10\] net145 net115 mem\[6\]\[10\] _0438_ vssd1 vssd1 vccd1 vccd1
+ _0439_ sky130_fd_sc_hd__a221o_1
XFILLER_43_3 vccd1 vssd1 vccd1 vssd1 sky130_ef_sc_hd__decap_12
X_1304_ clknet_leaf_4_clk _0264_ vssd1 vssd1 vccd1 vccd1 mem\[14\]\[11\] sky130_fd_sc_hd__dfxtp_1
X_1235_ clknet_leaf_0_clk _0195_ vssd1 vssd1 vccd1 vccd1 mem\[10\]\[6\] sky130_fd_sc_hd__dfxtp_1
X_1166_ clknet_leaf_28_clk _0126_ vssd1 vssd1 vccd1 vccd1 mem\[6\]\[1\] sky130_fd_sc_hd__dfxtp_1
XFILLER_52_357 vssd1 vssd1 vccd1 vccd1 sky130_fd_sc_hd__fill_1
X_1097_ clknet_leaf_13_clk _0057_ vssd1 vssd1 vccd1 vccd1 mem\[1\]\[12\] sky130_fd_sc_hd__dfxtp_1
XANTENNA__0963__S net53 vssd1 vssd1 vccd1 vccd1 sky130_fd_sc_hd__diode_2
XFILLER_47_129 vccd1 vssd1 vccd1 vssd1 sky130_ef_sc_hd__decap_12
XANTENNA_fanout50_A net51 vssd1 vssd1 vccd1 vccd1 sky130_fd_sc_hd__diode_2
XTAP_TAPCELL_ROW_38_382 vssd1 vccd1 sky130_fd_sc_hd__tapvpwrvgnd_1
XANTENNA__1034__S net39 vssd1 vssd1 vccd1 vccd1 sky130_fd_sc_hd__diode_2
XFILLER_28_365 vssd1 vssd1 vccd1 vccd1 sky130_fd_sc_hd__decap_4
XFILLER_28_332 vccd1 vssd1 vccd1 vssd1 sky130_ef_sc_hd__decap_12
XANTENNA__0873__S net67 vssd1 vssd1 vccd1 vccd1 sky130_fd_sc_hd__diode_2
XFILLER_18_87 vccd1 vssd1 vccd1 vssd1 sky130_ef_sc_hd__decap_12
XTAP_TAPCELL_ROW_13_216 vssd1 vccd1 sky130_fd_sc_hd__tapvpwrvgnd_1
XTAP_TAPCELL_ROW_21_271 vssd1 vccd1 sky130_fd_sc_hd__tapvpwrvgnd_1
XFILLER_50_85 vssd1 vssd1 vccd1 vccd1 sky130_fd_sc_hd__fill_1
XFILLER_7_269 vssd1 vssd1 vccd1 vccd1 sky130_fd_sc_hd__decap_8
X_1020_ mem\[14\]\[13\] net186 net42 vssd1 vssd1 vccd1 vccd1 _0266_ sky130_fd_sc_hd__mux2_1
XFILLER_38_107 vssd1 vssd1 vccd1 vccd1 sky130_fd_sc_hd__fill_1
XFILLER_15_7 vssd1 vssd1 vccd1 vccd1 sky130_fd_sc_hd__fill_1
XFILLER_61_165 vssd1 vssd1 vccd1 vccd1 sky130_fd_sc_hd__decap_3
XFILLER_34_346 vccd1 vssd1 vccd1 vssd1 sky130_ef_sc_hd__decap_12
XANTENNA__0783__S net84 vssd1 vssd1 vccd1 vccd1 sky130_fd_sc_hd__diode_2
X_0735_ mem\[11\]\[15\] net141 net101 mem\[5\]\[15\] vssd1 vssd1 vccd1 vccd1 _0486_
+ sky130_fd_sc_hd__a22o_1
XANTENNA__0599__A2 net110 vssd1 vssd1 vccd1 vccd1 sky130_fd_sc_hd__diode_2
X_0804_ net230 mem\[2\]\[4\] net83 vssd1 vssd1 vccd1 vccd1 _0065_ sky130_fd_sc_hd__mux2_1
X_0666_ _0419_ _0420_ _0421_ _0423_ vssd1 vssd1 vccd1 vccd1 _0424_ sky130_fd_sc_hd__or4_1
XANTENNA__0958__S net54 vssd1 vssd1 vccd1 vccd1 sky130_fd_sc_hd__diode_2
X_0597_ mem\[14\]\[2\] net147 net99 mem\[5\]\[2\] vssd1 vssd1 vccd1 vccd1 _0361_ sky130_fd_sc_hd__a22o_1
XFILLER_29_129 vssd1 vssd1 vccd1 vccd1 sky130_fd_sc_hd__fill_1
XTAP_TAPCELL_ROW_27_308 vssd1 vccd1 sky130_fd_sc_hd__tapvpwrvgnd_1
XFILLER_25_335 vssd1 vssd1 vccd1 vccd1 sky130_fd_sc_hd__fill_1
X_1218_ clknet_leaf_23_clk _0178_ vssd1 vssd1 vccd1 vccd1 mem\[9\]\[5\] sky130_fd_sc_hd__dfxtp_1
X_1149_ clknet_leaf_25_clk _0109_ vssd1 vssd1 vccd1 vccd1 mem\[5\]\[0\] sky130_fd_sc_hd__dfxtp_1
XFILLER_40_316 vssd1 vssd1 vccd1 vccd1 sky130_fd_sc_hd__fill_2
XTAP_TAPCELL_ROW_35_363 vssd1 vccd1 sky130_fd_sc_hd__tapvpwrvgnd_1
XFILLER_25_368 vssd1 vssd1 vccd1 vccd1 sky130_fd_sc_hd__fill_1
XANTENNA_fanout140_X net140 vssd1 vssd1 vccd1 vccd1 sky130_fd_sc_hd__diode_2
XANTENNA__1029__S net38 vssd1 vssd1 vccd1 vccd1 sky130_fd_sc_hd__diode_2
XFILLER_20_11 vssd1 vssd1 vccd1 vccd1 sky130_fd_sc_hd__fill_1
XANTENNA_fanout53_X net53 vssd1 vssd1 vccd1 vccd1 sky130_fd_sc_hd__diode_2
XFILLER_43_198 vssd1 vssd1 vccd1 vccd1 sky130_fd_sc_hd__decap_3
XFILLER_43_121 vssd1 vssd1 vccd1 vccd1 sky130_fd_sc_hd__decap_3
XFILLER_16_335 vccd1 vssd1 vccd1 vssd1 sky130_ef_sc_hd__decap_12
XTAP_TAPCELL_ROW_41_399 vssd1 vccd1 sky130_fd_sc_hd__tapvpwrvgnd_1
X_0520_ wr_ptr\[3\] vssd1 vssd1 vccd1 vccd1 _0293_ sky130_fd_sc_hd__inv_2
X_1003_ mem\[13\]\[13\] net186 net45 vssd1 vssd1 vccd1 vccd1 _0250_ sky130_fd_sc_hd__mux2_1
XFILLER_34_110 vssd1 vssd1 vccd1 vccd1 sky130_fd_sc_hd__decap_4
XTAP_TAPCELL_ROW_32_344 vssd1 vccd1 sky130_fd_sc_hd__tapvpwrvgnd_1
XFILLER_22_327 vccd1 vssd1 vccd1 vssd1 sky130_ef_sc_hd__decap_12
X_0718_ mem\[11\]\[13\] net141 net116 mem\[6\]\[13\] _0470_ vssd1 vssd1 vccd1 vccd1
+ _0471_ sky130_fd_sc_hd__a221o_1
XANTENNA__0744__A2 net152 vssd1 vssd1 vccd1 vccd1 sky130_fd_sc_hd__diode_2
XANTENNA_fanout100_A net102 vssd1 vssd1 vccd1 vccd1 sky130_fd_sc_hd__diode_2
XPHY_EDGE_ROW_6_Right_6 vssd1 vssd1 vccd1 vccd1 sky130_fd_sc_hd__decap_3
X_0649_ mem\[8\]\[7\] net108 net96 mem\[7\]\[7\] _0406_ vssd1 vssd1 vccd1 vccd1 _0408_
+ sky130_fd_sc_hd__a221o_1
XFILLER_25_110 vssd1 vssd1 vccd1 vccd1 sky130_fd_sc_hd__fill_2
XFILLER_13_327 vssd1 vssd1 vccd1 vccd1 sky130_fd_sc_hd__decap_8
XFILLER_13_349 vssd1 vssd1 vccd1 vccd1 sky130_fd_sc_hd__decap_6
XFILLER_31_65 vssd1 vssd1 vccd1 vccd1 sky130_fd_sc_hd__fill_1
XFILLER_9_309 vccd1 vssd1 vccd1 vssd1 sky130_ef_sc_hd__decap_12
XANTENNA__0735__A2 net141 vssd1 vssd1 vccd1 vccd1 sky130_fd_sc_hd__diode_2
Xoutput32 net32 vssd1 vssd1 vccd1 vccd1 rd_data_o[4] sky130_fd_sc_hd__buf_4
Xoutput21 net21 vssd1 vssd1 vccd1 vccd1 full_o sky130_fd_sc_hd__buf_4
XFILLER_0_253 vccd1 vssd1 vccd1 vssd1 sky130_ef_sc_hd__decap_12
XFILLER_56_95 vssd1 vssd1 vccd1 vccd1 sky130_fd_sc_hd__fill_2
XPHY_EDGE_ROW_59_Right_59 vssd1 vssd1 vccd1 vccd1 sky130_fd_sc_hd__decap_3
XFILLER_31_135 vssd1 vssd1 vccd1 vccd1 sky130_fd_sc_hd__fill_1
XANTENNA_fanout148_A net150 vssd1 vssd1 vccd1 vccd1 sky130_fd_sc_hd__diode_2
XANTENNA__0717__A2 net101 vssd1 vssd1 vccd1 vccd1 sky130_fd_sc_hd__diode_2
XANTENNA_fanout103_X net103 vssd1 vssd1 vccd1 vccd1 sky130_fd_sc_hd__diode_2
XANTENNA__0881__S net68 vssd1 vssd1 vccd1 vccd1 sky130_fd_sc_hd__diode_2
XPHY_EDGE_ROW_37_Left_99 vssd1 vssd1 vccd1 vccd1 sky130_fd_sc_hd__decap_3
XFILLER_9_106 vssd1 vssd1 vccd1 vccd1 sky130_fd_sc_hd__decap_6
XFILLER_13_113 vssd1 vssd1 vccd1 vccd1 sky130_fd_sc_hd__fill_1
XANTENNA__0708__A2 net142 vssd1 vssd1 vccd1 vccd1 sky130_fd_sc_hd__diode_2
XPHY_EDGE_ROW_39_Left_101 vssd1 vssd1 vccd1 vccd1 sky130_fd_sc_hd__decap_3
XFILLER_5_356 vssd1 vssd1 vccd1 vccd1 sky130_fd_sc_hd__fill_1
XFILLER_3_69 vccd1 vssd1 vccd1 vssd1 sky130_ef_sc_hd__decap_12
XTAP_TAPCELL_ROW_8_183 vssd1 vccd1 sky130_fd_sc_hd__tapvpwrvgnd_1
XPHY_EDGE_ROW_48_Left_110 vssd1 vssd1 vccd1 vccd1 sky130_fd_sc_hd__decap_3
XANTENNA__0791__S net85 vssd1 vssd1 vccd1 vccd1 sky130_fd_sc_hd__diode_2
X_0983_ mem\[12\]\[10\] net197 net49 vssd1 vssd1 vccd1 vccd1 _0231_ sky130_fd_sc_hd__mux2_1
Xfanout129 net130 vssd1 vssd1 vccd1 vccd1 net129 sky130_fd_sc_hd__buf_1
Xfanout118 net119 vssd1 vssd1 vccd1 vccd1 net118 sky130_fd_sc_hd__buf_2
Xfanout107 net109 vssd1 vssd1 vccd1 vccd1 net107 sky130_fd_sc_hd__dlymetal6s2s_1
XANTENNA__0966__S net53 vssd1 vssd1 vccd1 vccd1 sky130_fd_sc_hd__diode_2
XFILLER_6_109 vccd1 vssd1 vccd1 vssd1 sky130_ef_sc_hd__decap_12
XFILLER_12_67 vssd1 vssd1 vccd1 vccd1 sky130_fd_sc_hd__fill_1
XANTENNA__1037__S net39 vssd1 vssd1 vccd1 vccd1 sky130_fd_sc_hd__diode_2
XANTENNA__0876__S net68 vssd1 vssd1 vccd1 vccd1 sky130_fd_sc_hd__diode_2
XTAP_TAPCELL_ROW_5_164 vssd1 vccd1 sky130_fd_sc_hd__tapvpwrvgnd_1