*SPEF "ieee 1481-1999"
*DESIGN "system_top"
*DATE "02:20:27 Wednesday January 21, 2026"
*VENDOR "The OpenROAD Project"
*PROGRAM "OpenROAD"
*VERSION "b16bda7e82721d10566ff7e2b68f1ff0be9f9e38"
*DESIGN_FLOW "NAME_SCOPE LOCAL" "PIN_CAP NONE"
*DIVIDER /
*DELIMITER :
*BUS_DELIMITER []
*T_UNIT 1 NS
*C_UNIT 1 PF
*R_UNIT 1 OHM
*L_UNIT 1 HENRY

*NAME_MAP
*3 busy_o
*4 clk
*5 data_i[0]
*6 data_i[10]
*7 data_i[11]
*8 data_i[12]
*9 data_i[13]
*10 data_i[14]
*11 data_i[15]
*12 data_i[1]
*13 data_i[2]
*14 data_i[3]
*15 data_i[4]
*16 data_i[5]
*17 data_i[6]
*18 data_i[7]
*19 data_i[8]
*20 data_i[9]
*21 data_o[0]
*22 data_o[1]
*23 data_o[2]
*24 data_o[3]
*25 data_o[4]
*26 data_o[5]
*27 data_o[6]
*28 data_o[7]
*29 dvalid_i
*30 rst_n
*31 valid_o
*32 _0000_
*33 _0001_
*34 _0002_
*35 _0003_
*36 _0004_
*37 _0005_
*38 _0006_
*39 _0007_
*40 _0008_
*41 _0009_
*42 _0010_
*43 _0011_
*44 _0012_
*45 _0013_
*46 _0014_
*47 _0015_
*48 _0016_
*49 _0017_
*50 _0018_
*51 _0019_
*52 _0020_
*53 _0021_
*54 _0022_
*55 _0023_
*56 _0024_
*57 _0025_
*58 _0026_
*59 _0027_
*60 _0028_
*61 _0029_
*62 _0030_
*63 _0031_
*64 _0032_
*65 _0033_
*66 _0034_
*67 _0035_
*68 _0036_
*69 _0037_
*70 _0038_
*71 _0039_
*72 _0040_
*73 _0041_
*74 _0042_
*75 _0043_
*76 _0044_
*77 _0045_
*78 _0046_
*79 _0047_
*80 _0048_
*81 _0049_
*82 _0050_
*83 _0051_
*84 _0052_
*85 _0053_
*86 _0054_
*87 _0055_
*88 _0056_
*89 _0057_
*90 _0058_
*91 _0059_
*92 _0060_
*93 _0061_
*94 _0062_
*95 _0063_
*96 _0064_
*97 _0065_
*98 _0066_
*99 _0067_
*100 _0068_
*101 _0069_
*102 _0070_
*103 _0071_
*104 _0072_
*105 _0073_
*106 _0074_
*107 _0075_
*108 _0076_
*109 _0077_
*110 _0078_
*111 _0079_
*112 _0080_
*113 _0081_
*114 _0082_
*115 _0083_
*116 _0084_
*117 _0085_
*118 _0086_
*119 _0087_
*120 _0088_
*121 _0089_
*122 _0090_
*123 _0091_
*124 _0092_
*125 _0093_
*126 _0094_
*127 _0095_
*128 _0096_
*129 _0097_
*130 _0098_
*131 _0099_
*132 _0100_
*133 _0101_
*134 _0102_
*135 _0103_
*136 _0104_
*137 _0105_
*138 _0106_
*139 _0107_
*140 _0108_
*141 _0109_
*142 _0110_
*143 _0111_
*144 _0112_
*145 _0113_
*146 _0114_
*147 _0115_
*148 _0116_
*149 _0117_
*150 _0118_
*151 _0119_
*152 _0120_
*153 _0121_
*154 _0122_
*155 _0123_
*156 _0124_
*157 _0125_
*158 _0126_
*159 _0127_
*160 _0128_
*161 _0129_
*162 _0130_
*163 _0131_
*164 _0132_
*165 _0133_
*166 _0134_
*167 _0135_
*168 _0136_
*169 _0137_
*170 _0138_
*171 _0139_
*172 _0140_
*173 _0141_
*174 _0142_
*175 _0143_
*176 _0144_
*177 _0145_
*178 _0146_
*179 _0147_
*180 _0148_
*181 _0149_
*182 _0150_
*183 _0151_
*184 _0152_
*185 _0153_
*186 _0154_
*187 _0155_
*188 _0156_
*189 _0157_
*190 _0158_
*191 _0159_
*192 _0160_
*193 _0161_
*194 _0162_
*195 _0163_
*196 _0164_
*197 _0165_
*198 _0166_
*199 _0167_
*200 _0168_
*201 _0169_
*202 _0170_
*203 _0171_
*204 _0172_
*205 _0173_
*206 _0174_
*207 _0175_
*208 _0176_
*209 _0177_
*210 _0178_
*211 _0179_
*212 _0180_
*213 _0181_
*214 _0182_
*215 _0183_
*216 _0184_
*217 _0185_
*218 _0186_
*219 _0187_
*220 _0188_
*221 _0189_
*222 _0190_
*223 _0191_
*224 _0192_
*225 _0193_
*226 _0194_
*227 _0195_
*228 _0196_
*229 _0197_
*230 _0198_
*231 _0199_
*232 _0200_
*233 _0201_
*234 _0202_
*235 _0203_
*236 _0204_
*237 _0205_
*238 _0206_
*239 _0207_
*240 _0208_
*241 _0209_
*242 _0210_
*243 _0211_
*244 _0212_
*245 _0213_
*246 _0214_
*247 _0215_
*248 _0216_
*249 _0217_
*250 _0218_
*251 _0219_
*252 _0220_
*253 _0221_
*254 _0222_
*255 _0223_
*256 _0224_
*257 _0225_
*258 _0226_
*259 _0227_
*260 _0228_
*261 _0229_
*262 _0230_
*263 _0231_
*264 _0232_
*265 _0233_
*266 _0234_
*267 _0235_
*268 _0236_
*269 _0237_
*270 _0238_
*271 _0239_
*272 _0240_
*273 _0241_
*274 _0242_
*275 _0243_
*276 _0244_
*277 _0245_
*278 _0246_
*279 _0247_
*280 _0248_
*281 _0249_
*282 _0250_
*283 _0251_
*284 _0252_
*285 _0253_
*286 _0254_
*287 _0255_
*288 _0256_
*289 _0257_
*290 _0258_
*291 _0259_
*292 _0260_
*293 _0261_
*294 _0262_
*295 _0263_
*296 _0264_
*297 _0265_
*298 _0266_
*299 _0267_
*300 _0268_
*301 _0269_
*302 _0270_
*303 _0271_
*304 _0272_
*305 _0273_
*306 _0274_
*307 _0275_
*308 _0276_
*309 _0277_
*310 _0278_
*311 _0279_
*312 _0280_
*313 _0281_
*314 _0282_
*315 _0283_
*316 _0284_
*317 _0285_
*318 _0286_
*319 _0287_
*320 _0288_
*321 _0289_
*322 _0290_
*323 _0291_
*324 _0292_
*325 _0293_
*326 _0294_
*327 _0295_
*328 _0296_
*329 _0297_
*330 _0298_
*331 _0299_
*332 _0300_
*333 _0301_
*334 _0302_
*335 _0303_
*336 _0304_
*337 _0305_
*338 _0306_
*339 _0307_
*340 _0308_
*341 _0309_
*342 _0310_
*343 _0311_
*344 _0312_
*345 _0313_
*346 _0314_
*347 _0315_
*348 _0316_
*349 _0317_
*350 _0318_
*351 _0319_
*352 _0320_
*353 _0321_
*354 _0322_
*355 _0323_
*356 _0324_
*357 _0325_
*358 _0326_
*359 _0327_
*360 _0328_
*361 _0329_
*362 _0330_
*363 _0331_
*364 _0332_
*365 _0333_
*366 _0334_
*367 _0335_
*368 _0336_
*369 _0337_
*370 _0338_
*371 _0339_
*372 _0340_
*373 _0341_
*374 _0342_
*375 _0343_
*376 _0344_
*377 _0345_
*378 _0346_
*379 _0347_
*380 _0348_
*381 _0349_
*382 _0350_
*383 _0351_
*384 _0352_
*385 _0353_
*386 _0354_
*387 _0355_
*388 _0356_
*389 _0357_
*390 _0358_
*391 _0359_
*392 _0360_
*393 _0361_
*394 _0362_
*395 _0363_
*396 _0364_
*397 _0365_
*398 _0366_
*399 _0367_
*400 _0368_
*401 _0369_
*402 _0370_
*403 _0371_
*404 _0372_
*405 _0373_
*406 _0374_
*407 _0375_
*408 _0376_
*409 _0377_
*410 _0378_
*411 _0379_
*412 _0380_
*413 _0381_
*414 _0382_
*415 _0383_
*416 _0384_
*417 _0385_
*418 _0386_
*419 _0387_
*420 _0388_
*421 _0389_
*422 _0390_
*423 _0391_
*424 _0392_
*425 _0393_
*426 _0394_
*427 _0395_
*428 _0396_
*429 _0397_
*430 _0398_
*431 _0399_
*432 _0400_
*433 _0401_
*434 _0402_
*435 _0403_
*436 _0404_
*437 _0405_
*438 _0406_
*439 _0407_
*440 _0408_
*441 _0409_
*442 _0410_
*443 _0411_
*444 _0412_
*445 _0413_
*446 _0414_
*447 _0415_
*448 _0416_
*449 _0417_
*450 _0418_
*451 _0419_
*452 _0420_
*453 _0421_
*454 _0422_
*455 _0423_
*456 _0424_
*457 _0425_
*458 _0426_
*459 _0427_
*460 _0428_
*461 _0429_
*462 _0430_
*463 _0431_
*464 _0432_
*465 _0433_
*466 _0434_
*467 _0435_
*468 _0436_
*469 _0437_
*470 _0438_
*471 _0439_
*472 _0440_
*473 _0441_
*474 _0442_
*475 _0443_
*476 _0444_
*477 _0445_
*478 _0446_
*479 _0447_
*480 _0448_
*481 _0449_
*482 _0450_
*483 _0451_
*484 _0452_
*485 _0453_
*486 _0454_
*487 _0455_
*488 _0456_
*489 _0457_
*490 _0458_
*491 _0459_
*492 _0460_
*493 _0461_
*494 _0462_
*495 _0463_
*496 _0464_
*497 _0465_
*498 _0466_
*499 _0467_
*500 _0468_
*501 _0469_
*502 _0470_
*503 _0471_
*504 _0472_
*505 _0473_
*506 _0474_
*507 _0475_
*508 _0476_
*509 _0477_
*510 _0478_
*511 _0479_
*512 _0480_
*513 _0481_
*514 _0482_
*515 _0483_
*516 _0484_
*517 _0485_
*518 _0486_
*519 _0487_
*520 _0488_
*521 _0489_
*522 _0490_
*523 _0491_
*524 _0492_
*525 _0493_
*526 _0494_
*527 _0495_
*528 _0496_
*529 _0497_
*530 _0498_
*531 _0499_
*532 _0500_
*533 _0501_
*534 _0502_
*535 _0503_
*536 _0504_
*537 _0505_
*538 _0506_
*539 _0507_
*540 _0508_
*541 _0509_
*542 _0510_
*543 _0511_
*544 _0512_
*545 _0513_
*546 _0514_
*547 _0515_
*548 _0516_
*549 _0517_
*550 _0518_
*551 _0519_
*552 _0520_
*553 _0521_
*554 _0522_
*555 _0523_
*556 _0524_
*557 _0525_
*558 _0526_
*559 _0527_
*560 _0528_
*561 _0529_
*562 _0530_
*563 _0531_
*564 _0532_
*565 _0533_
*566 _0534_
*567 _0535_
*568 _0536_
*569 _0537_
*570 _0538_
*571 _0539_
*572 _0540_
*573 _0541_
*574 _0542_
*575 _0543_
*576 _0544_
*577 _0545_
*578 _0546_
*579 _0547_
*580 _0548_
*581 _0549_
*582 _0550_
*583 _0551_
*584 _0552_
*585 _0553_
*586 _0554_
*587 _0555_
*588 _0556_
*589 _0557_
*590 _0558_
*591 _0559_
*592 _0560_
*593 _0561_
*594 _0562_
*595 _0563_
*596 _0564_
*597 _0565_
*598 _0566_
*599 _0567_
*600 _0568_
*601 _0569_
*602 _0570_
*603 _0571_
*604 _0572_
*605 _0573_
*606 _0574_
*607 _0575_
*608 _0576_
*609 _0577_
*610 _0578_
*611 _0579_
*612 _0580_
*613 _0581_
*614 _0582_
*615 _0583_
*616 _0584_
*617 _0585_
*618 _0586_
*619 _0587_
*620 _0588_
*621 _0589_
*622 _0590_
*623 _0591_
*624 _0592_
*625 _0593_
*626 _0594_
*627 _0595_
*628 _0596_
*629 _0597_
*630 _0598_
*631 _0599_
*632 _0600_
*633 _0601_
*634 _0602_
*635 _0603_
*636 _0604_
*637 _0605_
*638 _0606_
*639 _0607_
*640 _0608_
*641 _0609_
*642 _0610_
*643 _0611_
*644 _0612_
*645 _0613_
*646 _0614_
*647 _0615_
*648 _0616_
*649 _0617_
*650 _0618_
*651 _0619_
*652 _0620_
*653 _0621_
*654 _0622_
*655 _0623_
*656 _0624_
*657 _0625_
*658 _0626_
*659 _0627_
*660 _0628_
*661 _0629_
*662 _0630_
*663 _0631_
*664 _0632_
*665 _0633_
*666 _0634_
*667 _0635_
*668 _0636_
*669 _0637_
*670 _0638_
*671 _0639_
*672 _0640_
*673 _0641_
*674 _0642_
*675 _0643_
*676 _0644_
*677 _0645_
*678 _0646_
*679 _0647_
*680 _0648_
*681 _0649_
*682 _0650_
*683 _0651_
*684 _0652_
*685 _0653_
*686 _0654_
*687 _0655_
*688 _0656_
*689 _0657_
*690 _0658_
*691 _0659_
*692 _0660_
*693 _0661_
*694 _0662_
*695 _0663_
*696 _0664_
*697 _0665_
*698 _0666_
*699 _0667_
*700 _0668_
*701 _0669_
*702 _0670_
*703 _0671_
*704 _0672_
*705 _0673_
*706 _0674_
*707 _0675_
*708 _0676_
*709 _0677_
*710 _0678_
*711 _0679_
*712 _0680_
*713 _0681_
*714 _0682_
*715 _0683_
*716 _0684_
*717 _0685_
*718 _0686_
*719 _0687_
*720 _0688_
*721 _0689_
*722 _0690_
*723 _0691_
*724 _0692_
*725 _0693_
*726 _0694_
*727 _0695_
*728 _0696_
*729 _0697_
*730 _0698_
*731 _0699_
*732 _0700_
*733 _0701_
*734 _0702_
*735 _0703_
*736 _0704_
*737 _0705_
*738 _0706_
*739 _0707_
*740 _0708_
*741 _0709_
*742 _0710_
*743 _0711_
*744 _0712_
*745 _0713_
*746 _0714_
*747 _0715_
*748 _0716_
*749 _0717_
*750 _0718_
*751 _0719_
*752 _0720_
*753 _0721_
*754 _0722_
*755 _0723_
*756 _0724_
*757 _0725_
*758 _0726_
*759 _0727_
*760 _0728_
*761 _0729_
*762 _0730_
*763 _0731_
*764 _0732_
*765 _0733_
*766 _0734_
*767 _0735_
*768 _0736_
*769 _0737_
*770 _0738_
*771 _0739_
*772 _0740_
*773 _0741_
*774 _0742_
*775 _0743_
*776 _0744_
*777 _0745_
*778 _0746_
*779 _0747_
*780 _0748_
*781 _0749_
*782 _0750_
*783 _0751_
*784 _0752_
*785 _0753_
*786 _0754_
*787 _0755_
*788 _0756_
*789 _0757_
*790 _0758_
*791 _0759_
*792 _0760_
*793 _0761_
*794 _0762_
*795 _0763_
*796 _0764_
*797 _0765_
*798 _0766_
*799 _0767_
*800 _0768_
*801 _0769_
*802 _0770_
*803 _0771_
*804 _0772_
*805 _0773_
*806 _0774_
*807 _0775_
*808 _0776_
*809 _0777_
*810 _0778_
*811 _0779_
*812 _0780_
*813 _0781_
*814 _0782_
*815 _0783_
*816 _0784_
*817 _0785_
*818 _0786_
*819 _0787_
*820 _0788_
*821 _0789_
*822 _0790_
*823 _0791_
*824 _0792_
*825 _0793_
*826 _0794_
*827 _0795_
*828 _0796_
*829 _0797_
*830 _0798_
*831 _0799_
*832 _0800_
*833 _0801_
*834 _0802_
*835 _0803_
*836 _0804_
*837 _0805_
*838 _0806_
*839 _0807_
*840 _0808_
*841 _0809_
*842 _0810_
*843 _0811_
*844 _0812_
*845 _0813_
*846 _0814_
*847 _0815_
*848 _0816_
*849 _0817_
*850 _0818_
*851 _0819_
*852 _0820_
*853 _0821_
*854 _0822_
*855 _0823_
*856 _0824_
*857 _0825_
*858 _0826_
*859 _0827_
*860 _0828_
*861 _0829_
*862 _0830_
*863 _0831_
*864 _0832_
*865 _0833_
*866 _0834_
*867 _0835_
*868 _0836_
*869 _0837_
*870 _0838_
*871 _0839_
*872 _0840_
*873 _0841_
*874 _0842_
*875 _0843_
*876 _0844_
*877 _0845_
*878 _0846_
*879 _0847_
*880 _0848_
*881 _0849_
*882 _0850_
*883 _0851_
*884 _0852_
*885 _0853_
*886 _0854_
*887 _0855_
*888 _0856_
*889 _0857_
*890 _0858_
*891 _0859_
*892 _0860_
*893 _0861_
*894 _0862_
*895 _0863_
*896 _0864_
*897 _0865_
*898 _0866_
*899 _0867_
*900 _0868_
*901 _0869_
*902 _0870_
*903 _0871_
*904 _0872_
*905 _0873_
*906 _0874_
*907 _0875_
*908 _0876_
*909 _0877_
*910 _0878_
*911 _0879_
*912 _0880_
*913 _0881_
*914 _0882_
*915 _0883_
*916 _0884_
*917 _0885_
*918 _0886_
*919 _0887_
*920 _0888_
*921 _0889_
*922 _0890_
*923 _0891_
*924 _0892_
*925 _0893_
*926 _0894_
*927 _0895_
*928 _0896_
*929 _0897_
*930 _0898_
*931 _0899_
*932 _0900_
*933 _0901_
*934 _0902_
*935 _0903_
*936 _0904_
*937 _0905_
*938 _0906_
*939 _0907_
*940 _0908_
*941 _0909_
*942 _0910_
*943 _0911_
*944 _0912_
*945 _0913_
*946 _0914_
*947 _0915_
*948 _0916_
*949 _0917_
*950 _0918_
*951 _0919_
*952 _0920_
*953 _0921_
*954 _0922_
*955 _0923_
*956 _0924_
*957 _0925_
*958 _0926_
*959 _0927_
*960 _0928_
*961 _0929_
*962 _0930_
*963 _0931_
*964 _0932_
*965 _0933_
*966 _0934_
*967 _0935_
*968 _0936_
*969 _0937_
*970 _0938_
*971 _0939_
*972 _0940_
*973 _0941_
*974 _0942_
*975 _0943_
*976 _0944_
*977 _0945_
*978 _0946_
*979 _0947_
*980 _0948_
*981 _0949_
*982 _0950_
*983 _0951_
*984 _0952_
*985 _0953_
*986 _0954_
*987 _0955_
*988 _0956_
*989 _0957_
*990 _0958_
*991 _0959_
*992 _0960_
*993 _0961_
*994 _0962_
*995 _0963_
*996 _0964_
*997 _0965_
*998 _0966_
*999 _0967_
*1000 _0968_
*1001 _0969_
*1002 _0970_
*1003 _0971_
*1004 _0972_
*1005 _0973_
*1006 _0974_
*1007 _0975_
*1008 _0976_
*1009 _0977_
*1010 _0978_
*1011 _0979_
*1012 _0980_
*1013 _0981_
*1014 _0982_
*1015 _0983_
*1016 _0984_
*1017 _0985_
*1018 _0986_
*1019 _0987_
*1020 _0988_
*1021 _0989_
*1022 _0990_
*1023 _0991_
*1024 _0992_
*1025 _0993_
*1026 _0994_
*1027 _0995_
*1028 _0996_
*1029 _0997_
*1030 _0998_
*1031 _0999_
*1032 _1000_
*1033 _1001_
*1034 _1002_
*1035 _1003_
*1036 _1004_
*1037 _1005_
*1038 _1006_
*1039 _1007_
*1040 _1008_
*1041 _1009_
*1042 _1010_
*1043 _1011_
*1044 _1012_
*1045 _1013_
*1046 _1014_
*1047 _1015_
*1048 _1016_
*1049 _1017_
*1050 _1018_
*1051 _1019_
*1052 _1020_
*1053 _1021_
*1054 _1022_
*1055 _1023_
*1056 _1024_
*1057 _1025_
*1058 _1026_
*1059 _1027_
*1060 _1028_
*1061 _1029_
*1062 _1030_
*1063 _1031_
*1064 _1032_
*1065 _1033_
*1066 _1034_
*1067 _1035_
*1068 _1036_
*1069 _1037_
*1070 _1038_
*1071 _1039_
*1072 _1040_
*1073 _1041_
*1074 _1042_
*1075 _1043_
*1076 _1044_
*1077 _1045_
*1078 _1046_
*1079 _1047_
*1080 _1048_
*1081 _1049_
*1082 _1050_
*1083 _1051_
*1084 _1052_
*1085 _1053_
*1086 _1054_
*1087 _1055_
*1088 _1056_
*1089 _1057_
*1090 _1058_
*1091 _1059_
*1092 _1060_
*1093 _1061_
*1094 _1062_
*1095 _1063_
*1096 _1064_
*1097 _1065_
*1098 _1066_
*1099 _1067_
*1100 _1068_
*1101 _1069_
*1102 _1070_
*1103 _1071_
*1104 _1072_
*1105 _1073_
*1106 _1074_
*1107 _1075_
*1108 _1076_
*1109 _1077_
*1110 _1078_
*1111 _1079_
*1112 _1080_
*1113 _1081_
*1114 _1082_
*1115 _1083_
*1116 _1084_
*1117 _1085_
*1118 _1086_
*1119 _1087_
*1120 _1088_
*1121 _1089_
*1122 _1090_
*1123 _1091_
*1124 _1092_
*1125 _1093_
*1126 _1094_
*1127 _1095_
*1128 _1096_
*1129 _1097_
*1130 _1098_
*1131 _1099_
*1132 _1100_
*1133 _1101_
*1134 _1102_
*1135 _1103_
*1136 _1104_
*1137 _1105_
*1138 _1106_
*1139 _1107_
*1140 _1108_
*1141 _1109_
*1142 _1110_
*1143 _1111_
*1144 _1112_
*1145 _1113_
*1146 _1114_
*1147 _1115_
*1148 _1116_
*1149 _1117_
*1150 _1118_
*1151 _1119_
*1152 _1120_
*1153 _1121_
*1154 _1122_
*1155 _1123_
*1156 _1124_
*1157 _1125_
*1158 _1126_
*1159 _1127_
*1160 _1128_
*1161 _1129_
*1162 _1130_
*1163 _1131_
*1164 _1132_
*1165 _1133_
*1166 _1134_
*1167 _1135_
*1168 _1136_
*1169 _1137_
*1170 _1138_
*1171 _1139_
*1172 _1140_
*1173 _1141_
*1174 _1142_
*1175 _1143_
*1176 _1144_
*1177 _1145_
*1178 _1146_
*1179 _1147_
*1180 _1148_
*1181 _1149_
*1182 _1150_
*1183 _1151_
*1184 _1152_
*1185 _1153_
*1186 _1154_
*1187 _1155_
*1188 _1156_
*1189 _1157_
*1190 _1158_
*1191 _1159_
*1192 _1160_
*1193 _1161_
*1194 _1162_
*1195 _1163_
*1196 _1164_
*1197 _1165_
*1198 _1166_
*1199 _1167_
*1200 _1168_
*1201 _1169_
*1202 _1170_
*1203 _1171_
*1204 _1172_
*1205 _1173_
*1206 _1174_
*1207 _1175_
*1208 _1176_
*1209 _1177_
*1210 _1178_
*1211 _1179_
*1212 _1180_
*1213 _1181_
*1214 _1182_
*1215 _1183_
*1216 _1184_
*1217 _1185_
*1218 _1186_
*1219 _1187_
*1220 _1188_
*1221 _1189_
*1222 _1190_
*1223 _1191_
*1224 _1192_
*1225 _1193_
*1226 _1194_
*1227 _1195_
*1228 _1196_
*1229 _1197_
*1230 _1198_
*1231 _1199_
*1232 _1200_
*1233 _1201_
*1234 _1202_
*1235 _1203_
*1236 _1204_
*1237 _1205_
*1238 _1206_
*1239 _1207_
*1240 _1208_
*1241 _1209_
*1242 _1210_
*1243 _1211_
*1244 _1212_
*1245 _1213_
*1246 _1214_
*1247 _1215_
*1248 _1216_
*1249 _1217_
*1250 _1218_
*1251 _1219_
*1252 _1220_
*1253 _1221_
*1254 _1222_
*1255 _1223_
*1256 _1224_
*1257 _1225_
*1258 _1226_
*1259 _1227_
*1260 _1228_
*1261 _1229_
*1262 _1230_
*1263 _1231_
*1264 _1232_
*1265 _1233_
*1266 _1234_
*1267 _1235_
*1268 _1236_
*1269 _1237_
*1270 _1238_
*1271 _1239_
*1272 _1240_
*1273 _1241_
*1274 _1242_
*1275 _1243_
*1276 _1244_
*1277 _1245_
*1278 _1246_
*1279 _1247_
*1280 _1248_
*1281 _1249_
*1282 _1250_
*1283 _1251_
*1284 _1252_
*1285 _1253_
*1286 _1254_
*1287 _1255_
*1288 _1256_
*1289 _1257_
*1290 _1258_
*1291 _1259_
*1292 _1260_
*1293 _1261_
*1294 _1262_
*1295 _1263_
*1296 _1264_
*1297 _1265_
*1298 _1266_
*1299 _1267_
*1300 _1268_
*1301 _1269_
*1302 _1270_
*1303 _1271_
*1304 _1272_
*1305 _1273_
*1306 _1274_
*1307 _1275_
*1308 _1276_
*1309 _1277_
*1310 _1278_
*1311 _1279_
*1312 _1280_
*1313 _1281_
*1314 _1282_
*1315 _1283_
*1316 _1284_
*1317 _1285_
*1318 _1286_
*1319 _1287_
*1320 _1288_
*1321 _1289_
*1322 _1290_
*1323 _1291_
*1324 _1292_
*1325 _1293_
*1326 _1294_
*1327 _1295_
*1328 _1296_
*1329 _1297_
*1330 _1298_
*1331 _1299_
*1332 _1300_
*1333 _1301_
*1334 _1302_
*1335 _1303_
*1336 _1304_
*1337 _1305_
*1338 _1306_
*1339 _1307_
*1340 _1308_
*1341 _1309_
*1342 _1310_
*1343 _1311_
*1344 _1312_
*1345 _1313_
*1346 _1314_
*1347 _1315_
*1348 _1316_
*1349 _1317_
*1350 _1318_
*1351 _1319_
*1352 _1320_
*1353 _1321_
*1354 _1322_
*1355 _1323_
*1356 _1324_
*1357 _1325_
*1358 _1326_
*1359 _1327_
*1360 _1328_
*1361 _1329_
*1362 _1330_
*1363 _1331_
*1364 _1332_
*1365 _1333_
*1366 _1334_
*1367 _1335_
*1368 _1336_
*1369 _1337_
*1370 _1338_
*1371 _1339_
*1372 _1340_
*1373 _1341_
*1374 _1342_
*1375 _1343_
*1376 _1344_
*1377 _1345_
*1378 _1346_
*1379 _1347_
*1380 _1348_
*1381 _1349_
*1382 _1350_
*1383 _1351_
*1384 _1352_
*1385 _1353_
*1386 _1354_
*1387 _1355_
*1388 _1356_
*1389 _1357_
*1390 _1358_
*1391 _1359_
*1392 _1360_
*1393 _1361_
*1394 _1362_
*1395 _1363_
*1396 _1364_
*1397 _1365_
*1398 _1366_
*1399 _1367_
*1400 _1368_
*1401 _1369_
*1402 _1370_
*1403 _1371_
*1404 _1372_
*1405 _1373_
*1406 _1374_
*1407 _1375_
*1408 _1376_
*1409 _1377_
*1410 _1378_
*1411 _1379_
*1412 _1380_
*1413 _1381_
*1414 _1382_
*1415 _1383_
*1416 _1384_
*1417 _1385_
*1418 _1386_
*1419 _1387_
*1420 _1388_
*1421 _1389_
*1422 _1390_
*1423 _1391_
*1424 _1392_
*1425 _1393_
*1426 _1394_
*1427 _1395_
*1428 _1396_
*1429 _1397_
*1430 _1398_
*1431 _1399_
*1432 _1400_
*1433 _1401_
*1434 _1402_
*1435 _1403_
*1436 _1404_
*1437 _1405_
*1438 _1406_
*1439 _1407_
*1440 _1408_
*1441 _1409_
*1442 _1410_
*1443 _1411_
*1444 _1412_
*1445 _1413_
*1446 _1414_
*1447 _1415_
*1448 _1416_
*1449 _1417_
*1450 _1418_
*1451 _1419_
*1452 _1420_
*1453 _1421_
*1454 _1422_
*1455 _1423_
*1456 _1424_
*1457 _1425_
*1458 _1426_
*1459 _1427_
*1460 _1428_
*1461 _1429_
*1462 _1430_
*1463 _1431_
*1464 _1432_
*1465 _1433_
*1466 _1434_
*1467 _1435_
*1468 _1436_
*1469 _1437_
*1470 _1438_
*1471 _1439_
*1472 _1440_
*1473 _1441_
*1474 _1442_
*1475 _1443_
*1476 _1444_
*1477 _1445_
*1478 _1446_
*1479 _1447_
*1480 _1448_
*1481 _1449_
*1482 _1450_
*1483 _1451_
*1484 _1452_
*1485 _1453_
*1486 _1454_
*1487 _1455_
*1488 _1456_
*1489 _1457_
*1490 _1458_
*1491 _1459_
*1492 _1460_
*1493 _1461_
*1494 _1462_
*1495 _1463_
*1496 _1464_
*1497 _1465_
*1498 _1466_
*1499 _1467_
*1500 _1468_
*1501 _1469_
*1502 _1470_
*1503 _1471_
*1504 _1472_
*1505 _1473_
*1506 _1474_
*1507 _1475_
*1508 _1476_
*1509 _1477_
*1510 _1478_
*1511 _1479_
*1512 _1480_
*1513 _1481_
*1514 _1482_
*1515 _1483_
*1516 _1484_
*1517 _1485_
*1518 _1486_
*1519 _1487_
*1520 _1488_
*1521 _1489_
*1522 _1490_
*1523 _1491_
*1524 _1492_
*1525 _1493_
*1526 _1494_
*1527 _1495_
*1528 _1496_
*1529 _1497_
*1530 _1498_
*1531 _1499_
*1532 _1500_
*1533 _1501_
*1534 _1502_
*1535 _1503_
*1536 _1504_
*1537 _1505_
*1538 _1506_
*1539 _1507_
*1540 _1508_
*1541 _1509_
*1542 _1510_
*1543 _1511_
*1544 _1512_
*1545 _1513_
*1546 _1514_
*1547 _1515_
*1548 _1516_
*1549 _1517_
*1550 _1518_
*1551 _1519_
*1552 _1520_
*1553 _1521_
*1554 _1522_
*1555 _1523_
*1556 _1524_
*1557 _1525_
*1558 _1526_
*1559 _1527_
*1560 _1528_
*1561 _1529_
*1562 _1530_
*1563 _1531_
*1564 _1532_
*1565 _1533_
*1566 _1534_
*1567 _1535_
*1568 _1536_
*1569 _1537_
*1570 _1538_
*1571 _1539_
*1572 _1540_
*1573 _1541_
*1574 _1542_
*1575 _1543_
*1576 _1544_
*1577 _1545_
*1578 _1546_
*1579 _1547_
*1580 _1548_
*1581 _1549_
*1582 _1550_
*1583 _1551_
*1584 _1552_
*1585 _1553_
*1586 _1554_
*1587 _1555_
*1588 _1556_
*1589 _1557_
*1590 _1558_
*1591 _1559_
*1592 _1560_
*1593 _1561_
*1594 _1562_
*1595 _1563_
*1596 _1564_
*1597 _1565_
*1598 _1566_
*1599 _1567_
*1600 _1568_
*1601 _1569_
*1602 _1570_
*1603 _1571_
*1604 _1572_
*1605 _1573_
*1606 _1574_
*1607 _1575_
*1608 _1576_
*1609 _1577_
*1610 _1578_
*1611 _1579_
*1612 _1580_
*1613 _1581_
*1614 _1582_
*1615 _1583_
*1616 _1584_
*1617 _1585_
*1618 _1586_
*1619 _1587_
*1620 _1588_
*1621 _1589_
*1622 _1590_
*1623 _1591_
*1624 _1592_
*1625 _1593_
*1626 _1594_
*1627 _1595_
*1628 _1596_
*1629 _1597_
*1630 _1598_
*1631 _1599_
*1632 _1600_
*1633 _1601_
*1634 _1602_
*1635 _1603_
*1636 _1604_
*1637 _1605_
*1638 _1606_
*1639 _1607_
*1640 _1608_
*1641 _1609_
*1642 _1610_
*1643 _1611_
*1644 _1612_
*1645 _1613_
*1646 _1614_
*1647 _1615_
*1648 clknet_0_clk
*1649 clknet_2_0__leaf_clk
*1650 clknet_2_1__leaf_clk
*1651 clknet_2_2__leaf_clk
*1652 clknet_2_3__leaf_clk
*1653 clknet_leaf_0_clk
*1654 clknet_leaf_10_clk
*1655 clknet_leaf_11_clk
*1656 clknet_leaf_12_clk
*1657 clknet_leaf_13_clk
*1658 clknet_leaf_14_clk
*1659 clknet_leaf_15_clk
*1660 clknet_leaf_16_clk
*1661 clknet_leaf_17_clk
*1662 clknet_leaf_18_clk
*1663 clknet_leaf_19_clk
*1664 clknet_leaf_1_clk
*1665 clknet_leaf_20_clk
*1666 clknet_leaf_21_clk
*1667 clknet_leaf_22_clk
*1668 clknet_leaf_23_clk
*1669 clknet_leaf_24_clk
*1670 clknet_leaf_25_clk
*1671 clknet_leaf_26_clk
*1672 clknet_leaf_27_clk
*1673 clknet_leaf_28_clk
*1674 clknet_leaf_29_clk
*1675 clknet_leaf_2_clk
*1676 clknet_leaf_30_clk
*1677 clknet_leaf_31_clk
*1678 clknet_leaf_32_clk
*1679 clknet_leaf_33_clk
*1680 clknet_leaf_34_clk
*1681 clknet_leaf_35_clk
*1682 clknet_leaf_36_clk
*1683 clknet_leaf_37_clk
*1684 clknet_leaf_38_clk
*1685 clknet_leaf_39_clk
*1686 clknet_leaf_3_clk
*1687 clknet_leaf_40_clk
*1688 clknet_leaf_41_clk
*1689 clknet_leaf_42_clk
*1690 clknet_leaf_4_clk
*1691 clknet_leaf_5_clk
*1692 clknet_leaf_6_clk
*1693 clknet_leaf_7_clk
*1694 clknet_leaf_8_clk
*1695 clknet_leaf_9_clk
*1696 net1
*1697 net10
*1698 net100
*1699 net101
*1700 net102
*1701 net103
*1702 net104
*1703 net105
*1704 net106
*1705 net107
*1706 net108
*1707 net109
*1708 net11
*1709 net110
*1710 net111
*1711 net112
*1712 net113
*1713 net114
*1714 net115
*1715 net116
*1716 net117
*1717 net118
*1718 net119
*1719 net12
*1720 net120
*1721 net121
*1722 net122
*1723 net123
*1724 net124
*1725 net125
*1726 net126
*1727 net127
*1728 net128
*1729 net129
*1730 net13
*1731 net130
*1732 net131
*1733 net132
*1734 net133
*1735 net134
*1736 net135
*1737 net136
*1738 net137
*1739 net138
*1740 net139
*1741 net14
*1742 net140
*1743 net141
*1744 net142
*1745 net143
*1746 net144
*1747 net145
*1748 net146
*1749 net147
*1750 net148
*1751 net149
*1752 net15
*1753 net150
*1754 net151
*1755 net152
*1756 net153
*1757 net154
*1758 net155
*1759 net156
*1760 net157
*1761 net158
*1762 net159
*1763 net16
*1764 net160
*1765 net161
*1766 net162
*1767 net163
*1768 net164
*1769 net165
*1770 net166
*1771 net167
*1772 net168
*1773 net169
*1774 net17
*1775 net170
*1776 net171
*1777 net172
*1778 net173
*1779 net174
*1780 net175
*1781 net176
*1782 net177
*1783 net178
*1784 net179
*1785 net18
*1786 net180
*1787 net181
*1788 net182
*1789 net183
*1790 net184
*1791 net185
*1792 net186
*1793 net187
*1794 net188
*1795 net189
*1796 net19
*1797 net190
*1798 net191
*1799 net192
*1800 net193
*1801 net194
*1802 net195
*1803 net196
*1804 net197
*1805 net198
*1806 net199
*1807 net2
*1808 net20
*1809 net200
*1810 net201
*1811 net202
*1812 net203
*1813 net204
*1814 net205
*1815 net206
*1816 net207
*1817 net208
*1818 net209
*1819 net21
*1820 net210
*1821 net211
*1822 net212
*1823 net213
*1824 net214
*1825 net215
*1826 net216
*1827 net217
*1828 net218
*1829 net219
*1830 net22
*1831 net220
*1832 net221
*1833 net222
*1834 net223
*1835 net224
*1836 net225
*1837 net226
*1838 net227
*1839 net228
*1840 net229
*1841 net23
*1842 net230
*1843 net231
*1844 net232
*1845 net233
*1846 net234
*1847 net235
*1848 net236
*1849 net237
*1850 net238
*1851 net239
*1852 net24
*1853 net240
*1854 net241
*1855 net242
*1856 net243
*1857 net244
*1858 net245
*1859 net246
*1860 net247
*1861 net248
*1862 net249
*1863 net25
*1864 net250
*1865 net251
*1866 net252
*1867 net253
*1868 net254
*1869 net255
*1870 net256
*1871 net257
*1872 net258
*1873 net259
*1874 net26
*1875 net260
*1876 net261
*1877 net262
*1878 net263
*1879 net264
*1880 net265
*1881 net266
*1882 net267
*1883 net268
*1884 net269
*1885 net27
*1886 net270
*1887 net271
*1888 net272
*1889 net273
*1890 net274
*1891 net275
*1892 net276
*1893 net277
*1894 net278
*1895 net279
*1896 net28
*1897 net280
*1898 net281
*1899 net282
*1900 net283
*1901 net284
*1902 net285
*1903 net286
*1904 net287
*1905 net288
*1906 net289
*1907 net29
*1908 net290
*1909 net291
*1910 net292
*1911 net293
*1912 net294
*1913 net295
*1914 net296
*1915 net297
*1916 net298
*1917 net299
*1918 net3
*1919 net30
*1920 net300
*1921 net301
*1922 net302
*1923 net303
*1924 net304
*1925 net305
*1926 net306
*1927 net307
*1928 net308
*1929 net309
*1930 net31
*1931 net310
*1932 net311
*1933 net312
*1934 net313
*1935 net314
*1936 net315
*1937 net316
*1938 net317
*1939 net318
*1940 net319
*1941 net32
*1942 net320
*1943 net321
*1944 net322
*1945 net323
*1946 net324
*1947 net325
*1948 net326
*1949 net327
*1950 net328
*1951 net329
*1952 net33
*1953 net330
*1954 net331
*1955 net332
*1956 net333
*1957 net334
*1958 net335
*1959 net336
*1960 net337
*1961 net338
*1962 net339
*1963 net34
*1964 net340
*1965 net341
*1966 net342
*1967 net343
*1968 net344
*1969 net345
*1970 net346
*1971 net347
*1972 net348
*1973 net349
*1974 net35
*1975 net350
*1976 net351
*1977 net352
*1978 net353
*1979 net354
*1980 net355
*1981 net356
*1982 net357
*1983 net358
*1984 net359
*1985 net36
*1986 net360
*1987 net361
*1988 net362
*1989 net363
*1990 net37
*1991 net38
*1992 net39
*1993 net4
*1994 net40
*1995 net41
*1996 net42
*1997 net43
*1998 net44
*1999 net45
*2000 net46
*2001 net47
*2002 net48
*2003 net49
*2004 net5
*2005 net50
*2006 net51
*2007 net52
*2008 net53
*2009 net54
*2010 net55
*2011 net56
*2012 net57
*2013 net58
*2014 net59
*2015 net6
*2016 net60
*2017 net61
*2018 net62
*2019 net63
*2020 net64
*2021 net65
*2022 net66
*2023 net67
*2024 net68
*2025 net69
*2026 net7
*2027 net70
*2028 net71
*2029 net72
*2030 net73
*2031 net74
*2032 net75
*2033 net76
*2034 net77
*2035 net78
*2036 net79
*2037 net8
*2038 net80
*2039 net81
*2040 net82
*2041 net83
*2042 net84
*2043 net85
*2044 net86
*2045 net87
*2046 net88
*2047 net89
*2048 net9
*2049 net90
*2050 net91
*2051 net92
*2052 net93
*2053 net94
*2054 net95
*2055 net96
*2056 net97
*2057 net98
*2058 net99
*2059 u_input_fifo\.count\[0\]
*2060 u_input_fifo\.count\[1\]
*2061 u_input_fifo\.count\[2\]
*2062 u_input_fifo\.count\[3\]
*2063 u_input_fifo\.count\[4\]
*2064 u_input_fifo\.mem\[0\]\[0\]
*2065 u_input_fifo\.mem\[0\]\[10\]
*2066 u_input_fifo\.mem\[0\]\[11\]
*2067 u_input_fifo\.mem\[0\]\[12\]
*2068 u_input_fifo\.mem\[0\]\[13\]
*2069 u_input_fifo\.mem\[0\]\[14\]
*2070 u_input_fifo\.mem\[0\]\[15\]
*2071 u_input_fifo\.mem\[0\]\[1\]
*2072 u_input_fifo\.mem\[0\]\[2\]
*2073 u_input_fifo\.mem\[0\]\[3\]
*2074 u_input_fifo\.mem\[0\]\[4\]
*2075 u_input_fifo\.mem\[0\]\[5\]
*2076 u_input_fifo\.mem\[0\]\[6\]
*2077 u_input_fifo\.mem\[0\]\[7\]
*2078 u_input_fifo\.mem\[0\]\[8\]
*2079 u_input_fifo\.mem\[0\]\[9\]
*2080 u_input_fifo\.mem\[10\]\[0\]
*2081 u_input_fifo\.mem\[10\]\[10\]
*2082 u_input_fifo\.mem\[10\]\[11\]
*2083 u_input_fifo\.mem\[10\]\[12\]
*2084 u_input_fifo\.mem\[10\]\[13\]
*2085 u_input_fifo\.mem\[10\]\[14\]
*2086 u_input_fifo\.mem\[10\]\[15\]
*2087 u_input_fifo\.mem\[10\]\[1\]
*2088 u_input_fifo\.mem\[10\]\[2\]
*2089 u_input_fifo\.mem\[10\]\[3\]
*2090 u_input_fifo\.mem\[10\]\[4\]
*2091 u_input_fifo\.mem\[10\]\[5\]
*2092 u_input_fifo\.mem\[10\]\[6\]
*2093 u_input_fifo\.mem\[10\]\[7\]
*2094 u_input_fifo\.mem\[10\]\[8\]
*2095 u_input_fifo\.mem\[10\]\[9\]
*2096 u_input_fifo\.mem\[11\]\[0\]
*2097 u_input_fifo\.mem\[11\]\[10\]
*2098 u_input_fifo\.mem\[11\]\[11\]
*2099 u_input_fifo\.mem\[11\]\[12\]
*2100 u_input_fifo\.mem\[11\]\[13\]
*2101 u_input_fifo\.mem\[11\]\[14\]
*2102 u_input_fifo\.mem\[11\]\[15\]
*2103 u_input_fifo\.mem\[11\]\[1\]
*2104 u_input_fifo\.mem\[11\]\[2\]
*2105 u_input_fifo\.mem\[11\]\[3\]
*2106 u_input_fifo\.mem\[11\]\[4\]
*2107 u_input_fifo\.mem\[11\]\[5\]
*2108 u_input_fifo\.mem\[11\]\[6\]
*2109 u_input_fifo\.mem\[11\]\[7\]
*2110 u_input_fifo\.mem\[11\]\[8\]
*2111 u_input_fifo\.mem\[11\]\[9\]
*2112 u_input_fifo\.mem\[12\]\[0\]
*2113 u_input_fifo\.mem\[12\]\[10\]
*2114 u_input_fifo\.mem\[12\]\[11\]
*2115 u_input_fifo\.mem\[12\]\[12\]
*2116 u_input_fifo\.mem\[12\]\[13\]
*2117 u_input_fifo\.mem\[12\]\[14\]
*2118 u_input_fifo\.mem\[12\]\[15\]
*2119 u_input_fifo\.mem\[12\]\[1\]
*2120 u_input_fifo\.mem\[12\]\[2\]
*2121 u_input_fifo\.mem\[12\]\[3\]
*2122 u_input_fifo\.mem\[12\]\[4\]
*2123 u_input_fifo\.mem\[12\]\[5\]
*2124 u_input_fifo\.mem\[12\]\[6\]
*2125 u_input_fifo\.mem\[12\]\[7\]
*2126 u_input_fifo\.mem\[12\]\[8\]
*2127 u_input_fifo\.mem\[12\]\[9\]
*2128 u_input_fifo\.mem\[13\]\[0\]
*2129 u_input_fifo\.mem\[13\]\[10\]
*2130 u_input_fifo\.mem\[13\]\[11\]
*2131 u_input_fifo\.mem\[13\]\[12\]
*2132 u_input_fifo\.mem\[13\]\[13\]
*2133 u_input_fifo\.mem\[13\]\[14\]
*2134 u_input_fifo\.mem\[13\]\[15\]
*2135 u_input_fifo\.mem\[13\]\[1\]
*2136 u_input_fifo\.mem\[13\]\[2\]
*2137 u_input_fifo\.mem\[13\]\[3\]
*2138 u_input_fifo\.mem\[13\]\[4\]
*2139 u_input_fifo\.mem\[13\]\[5\]
*2140 u_input_fifo\.mem\[13\]\[6\]
*2141 u_input_fifo\.mem\[13\]\[7\]
*2142 u_input_fifo\.mem\[13\]\[8\]
*2143 u_input_fifo\.mem\[13\]\[9\]
*2144 u_input_fifo\.mem\[14\]\[0\]
*2145 u_input_fifo\.mem\[14\]\[10\]
*2146 u_input_fifo\.mem\[14\]\[11\]
*2147 u_input_fifo\.mem\[14\]\[12\]
*2148 u_input_fifo\.mem\[14\]\[13\]
*2149 u_input_fifo\.mem\[14\]\[14\]
*2150 u_input_fifo\.mem\[14\]\[15\]
*2151 u_input_fifo\.mem\[14\]\[1\]
*2152 u_input_fifo\.mem\[14\]\[2\]
*2153 u_input_fifo\.mem\[14\]\[3\]
*2154 u_input_fifo\.mem\[14\]\[4\]
*2155 u_input_fifo\.mem\[14\]\[5\]
*2156 u_input_fifo\.mem\[14\]\[6\]
*2157 u_input_fifo\.mem\[14\]\[7\]