*SPEF "ieee 1481-1999"
*DESIGN "tbu"
*DATE "02:27:17 Saturday January 24, 2026"
*VENDOR "The OpenROAD Project"
*PROGRAM "OpenROAD"
*VERSION "edf00dff99f6c40d67a30c0e22a8191c5d2ed9d6"
*DESIGN_FLOW "NAME_SCOPE LOCAL" "PIN_CAP NONE"
*DIVIDER /
*DELIMITER :
*BUS_DELIMITER []
*T_UNIT 1 NS
*C_UNIT 1 PF
*R_UNIT 1 OHM
*L_UNIT 1 HENRY

*NAME_MAP
*1 clk
*2 dec_bits_i[0]
*3 dec_bits_i[1]
*4 dec_bits_i[2]
*5 dec_bits_i[3]
*6 decoded_bit_o
*7 pm_new_s0_i[0]
*8 pm_new_s0_i[1]
*9 pm_new_s0_i[2]
*10 pm_new_s0_i[3]
*11 pm_new_s0_i[4]
*12 pm_new_s0_i[5]
*13 pm_new_s0_i[6]
*14 pm_new_s0_i[7]
*15 pm_new_s1_i[0]
*16 pm_new_s1_i[1]
*17 pm_new_s1_i[2]
*18 pm_new_s1_i[3]
*19 pm_new_s1_i[4]
*20 pm_new_s1_i[5]
*21 pm_new_s1_i[6]
*22 pm_new_s1_i[7]
*23 pm_new_s2_i[0]
*24 pm_new_s2_i[1]
*25 pm_new_s2_i[2]
*26 pm_new_s2_i[3]
*27 pm_new_s2_i[4]
*28 pm_new_s2_i[5]
*29 pm_new_s2_i[6]
*30 pm_new_s2_i[7]
*31 pm_new_s3_i[0]
*32 pm_new_s3_i[1]
*33 pm_new_s3_i[2]
*34 pm_new_s3_i[3]
*35 pm_new_s3_i[4]
*36 pm_new_s3_i[5]
*37 pm_new_s3_i[6]
*38 pm_new_s3_i[7]
*39 rst_n
*40 valid_i
*41 valid_o
*44 _000_
*45 _001_
*46 _002_
*47 _003_
*48 _004_
*49 _005_
*50 _006_
*51 _007_
*52 _008_
*53 _009_
*54 _010_
*55 _011_
*56 _012_
*57 _013_
*58 _014_
*59 _015_
*60 _016_
*61 _017_
*62 _018_
*63 _019_
*64 _020_
*65 _021_
*66 _022_
*67 _023_
*68 _024_
*69 _025_
*70 _026_
*71 _027_
*72 _028_
*73 _029_
*74 _030_
*75 _031_
*76 _032_
*77 _033_
*78 _034_
*79 _035_
*80 _036_
*81 _037_
*82 _038_
*83 _039_
*84 _040_
*85 _041_
*86 _042_
*87 _043_
*88 _044_
*89 _045_
*90 _046_
*91 _047_
*92 _048_
*93 _049_
*94 _050_
*95 _051_
*96 _052_
*97 _053_
*98 _054_
*99 _055_
*100 _056_
*101 _057_
*102 _058_
*103 _059_
*104 _060_
*105 _061_
*106 _062_
*107 _063_
*108 _064_
*109 _065_
*110 _066_
*111 _067_
*112 _068_
*113 _069_
*114 _070_
*115 _071_
*116 _072_
*117 _073_
*118 _074_
*119 _075_
*120 _076_
*121 _077_
*122 _078_
*123 _079_
*124 _080_
*125 _081_
*126 _082_
*127 _083_
*128 _084_
*129 _085_
*130 _086_
*131 _087_
*132 _088_
*133 _089_
*134 _090_
*135 _091_
*136 _092_
*137 _093_
*138 _094_
*139 _095_
*140 _096_
*141 _097_
*142 _098_
*143 _099_
*144 _100_
*145 _101_
*146 _102_
*147 _103_
*148 _104_
*149 _105_
*150 _106_
*151 _107_
*152 _108_
*153 _109_
*154 _110_
*155 _111_
*156 _112_
*157 _113_
*158 _114_
*159 _115_
*160 _116_
*161 _117_
*162 _118_
*163 _119_
*164 _120_
*165 _121_
*166 _122_
*167 _123_
*168 _124_
*169 _125_
*170 _126_
*171 _127_
*172 _128_
*173 _129_
*174 _130_
*175 _131_
*176 _132_
*177 _133_
*178 _134_
*179 _135_
*180 _136_
*181 _137_
*182 _138_
*183 _139_
*184 _140_
*185 _141_
*186 _142_
*187 _143_
*188 _144_
*189 _145_
*190 _146_
*191 _147_
*192 _148_
*193 _149_
*194 _150_
*195 _151_
*196 _152_
*197 _153_
*198 _154_
*199 _155_
*200 _156_
*201 _157_
*202 _158_
*203 _159_
*204 _160_
*205 _161_
*206 _162_
*207 _163_
*208 _164_
*209 _165_
*210 _166_
*211 _167_
*212 _168_
*213 _169_
*214 _170_
*215 _171_
*216 _172_
*217 _173_
*218 _174_
*219 _175_
*220 _176_
*221 _177_
*222 _178_
*223 _179_
*224 _180_
*225 _181_
*226 _182_
*227 _183_
*228 _184_
*229 _185_
*230 _186_
*231 _187_
*232 _188_
*233 _189_
*234 _190_
*235 _191_
*236 _192_
*237 _193_
*238 _194_
*239 _195_
*240 _196_
*241 _197_
*242 _198_
*243 _199_
*244 _200_
*245 _201_
*246 _202_
*247 _203_
*248 _204_
*249 _205_
*250 _206_
*251 _207_
*252 _208_
*253 _209_
*254 _210_
*255 _211_
*256 _212_
*257 _213_
*258 _214_
*259 _215_
*260 _216_
*261 _217_
*262 _218_
*263 _219_
*264 _220_
*265 _221_
*266 _222_
*267 _223_
*268 _224_
*269 _225_
*270 _226_
*271 _227_
*272 _228_
*273 _229_
*274 _230_
*275 _231_
*276 _232_
*277 _233_
*278 _234_
*279 _235_
*280 _236_
*281 _237_
*282 _238_
*283 _239_
*284 _240_
*285 _241_
*286 _242_
*287 _243_
*288 _244_
*289 _245_
*290 _246_
*291 clknet_0_clk
*292 clknet_3_0__leaf_clk
*293 clknet_3_1__leaf_clk
*294 clknet_3_2__leaf_clk
*295 clknet_3_3__leaf_clk
*296 clknet_3_4__leaf_clk
*297 clknet_3_5__leaf_clk
*298 clknet_3_6__leaf_clk
*299 clknet_3_7__leaf_clk
*300 history_s0\[10\]
*301 history_s0\[11\]
*302 history_s0\[12\]
*303 history_s0\[13\]
*304 history_s0\[14\]
*305 history_s0\[2\]
*306 history_s0\[3\]
*307 history_s0\[4\]
*308 history_s0\[5\]
*309 history_s0\[6\]
*310 history_s0\[7\]
*311 history_s0\[8\]
*312 history_s0\[9\]
*313 history_s1\[10\]
*314 history_s1\[11\]
*315 history_s1\[12\]
*316 history_s1\[13\]
*317 history_s1\[14\]
*318 history_s1\[1\]
*319 history_s1\[2\]
*320 history_s1\[3\]
*321 history_s1\[4\]
*322 history_s1\[5\]
*323 history_s1\[6\]
*324 history_s1\[7\]
*325 history_s1\[8\]
*326 history_s1\[9\]
*327 history_s2\[0\]
*328 history_s2\[10\]
*329 history_s2\[11\]
*330 history_s2\[12\]
*331 history_s2\[13\]
*332 history_s2\[14\]
*333 history_s2\[2\]
*334 history_s2\[3\]
*335 history_s2\[4\]
*336 history_s2\[5\]
*337 history_s2\[6\]
*338 history_s2\[7\]
*339 history_s2\[8\]
*340 history_s2\[9\]
*341 history_s3\[10\]
*342 history_s3\[11\]
*343 history_s3\[12\]
*344 history_s3\[13\]
*345 history_s3\[14\]
*346 history_s3\[2\]
*347 history_s3\[3\]
*348 history_s3\[4\]
*349 history_s3\[5\]
*350 history_s3\[6\]
*351 history_s3\[7\]
*352 history_s3\[8\]
*353 history_s3\[9\]
*354 latency_counter\[0\]
*355 latency_counter\[1\]
*356 latency_counter\[2\]
*357 latency_counter\[3\]
*358 net1
*359 net10
*360 net11
*361 net12
*362 net13
*363 net14
*364 net15
*365 net16
*366 net17
*367 net18
*368 net19
*369 net2
*370 net20
*371 net21
*372 net22
*373 net23
*374 net24
*375 net25
*376 net26
*377 net27
*378 net28
*379 net29
*380 net3
*381 net30
*382 net31
*383 net32
*384 net33
*385 net34
*386 net35
*387 net36
*388 net37
*389 net38
*390 net39
*391 net4
*392 net40
*393 net41
*394 net42
*395 net43
*396 net44
*397 net45
*398 net46
*399 net47
*400 net48
*401 net49
*402 net5
*403 net50
*404 net51
*405 net52
*406 net53
*407 net54
*408 net55
*409 net56
*410 net57
*411 net58
*412 net59
*413 net6
*414 net60
*415 net61
*416 net62
*417 net63
*418 net64
*419 net65
*420 net66
*421 net67
*422 net68
*423 net69
*424 net7
*425 net70
*426 net71
*427 net72
*428 net73
*429 net74
*430 net75
*431 net76
*432 net77
*433 net78
*434 net79
*435 net8
*436 net80
*437 net81
*438 net82
*439 net9
*440 pipeline_full
*441 ANTENNA__382__A0
*442 ANTENNA__395__S
*443 ANTENNA__397__S
*444 ANTENNA__399__S
*445 ANTENNA__401__S
*446 ANTENNA__403__S
*447 ANTENNA__405__S
*448 ANTENNA__407__S
*449 ANTENNA__420__S
*450 ANTENNA__422__S
*451 ANTENNA__424__S
*452 ANTENNA__426__S
*453 ANTENNA__428__S
*454 ANTENNA__430__S
*455 ANTENNA__432__S
*456 ANTENNA__448__S
*457 ANTENNA__450__S
*458 ANTENNA__456__S
*459 ANTENNA__458__S
*460 ANTENNA__460__S
*461 ANTENNA__474__S
*462 ANTENNA__476__S
*463 ANTENNA__478__S
*464 ANTENNA__480__S
*465 ANTENNA__485__S
*466 ANTENNA__496__Q
*467 ANTENNA__532__RESET_B
*468 ANTENNA__535__RESET_B
*469 ANTENNA__536__RESET_B
*470 ANTENNA__537__RESET_B
*471 ANTENNA__550__RESET_B
*472 ANTENNA_clkbuf_0_clk_A
*473 ANTENNA_clkbuf_0_clk_X
*474 ANTENNA_clkbuf_3_0__f_clk_A
*475 ANTENNA_clkbuf_3_1__f_clk_A
*476 ANTENNA_clkbuf_3_2__f_clk_A
*477 ANTENNA_clkbuf_3_3__f_clk_A
*478 ANTENNA_clkbuf_3_4__f_clk_A
*479 ANTENNA_clkbuf_3_5__f_clk_A
*480 ANTENNA_clkbuf_3_6__f_clk_A
*481 ANTENNA_clkbuf_3_7__f_clk_A
*482 ANTENNA_fanout46_A
*483 ANTENNA_fanout47_A
*484 ANTENNA_fanout47_X
*485 ANTENNA_fanout52_A
*486 ANTENNA_fanout56_A
*487 ANTENNA_fanout57_X
*488 ANTENNA_fanout60_A
*489 ANTENNA_fanout61_A
*490 ANTENNA_fanout61_X
*491 ANTENNA_fanout66_A
*492 ANTENNA_fanout71_A
*493 ANTENNA_fanout72_X
*494 ANTENNA_fanout74_A
*495 ANTENNA_fanout75_A
*496 ANTENNA_fanout75_X
*497 ANTENNA_fanout77_A
*498 ANTENNA_fanout78_A
*499 ANTENNA_fanout79_X
*500 ANTENNA_fanout81_A
*501 ANTENNA_fanout82_A
*502 ANTENNA_fanout82_X
*503 ANTENNA_input10_A
*504 ANTENNA_input11_A
*505 ANTENNA_input12_A
*506 ANTENNA_input13_A
*507 ANTENNA_input14_A
*508 ANTENNA_input15_A
*509 ANTENNA_input16_A
*510 ANTENNA_input17_A
*511 ANTENNA_input18_A
*512 ANTENNA_input19_A
*513 ANTENNA_input1_A
*514 ANTENNA_input1_X
*515 ANTENNA_input20_A
*516 ANTENNA_input21_A
*517 ANTENNA_input22_A
*518 ANTENNA_input23_A
*519 ANTENNA_input24_A
*520 ANTENNA_input25_A
*521 ANTENNA_input26_A
*522 ANTENNA_input27_A
*523 ANTENNA_input28_A
*524 ANTENNA_input29_A
*525 ANTENNA_input2_A
*526 ANTENNA_input30_A
*527 ANTENNA_input31_A
*528 ANTENNA_input32_A
*529 ANTENNA_input33_A
*530 ANTENNA_input34_A
*531 ANTENNA_input35_A
*532 ANTENNA_input36_A
*533 ANTENNA_input37_A
*534 ANTENNA_input38_A
*535 ANTENNA_input3_A
*536 ANTENNA_input3_X
*537 ANTENNA_input4_A
*538 ANTENNA_input5_A
*539 ANTENNA_input6_A
*540 ANTENNA_input7_A
*541 ANTENNA_input8_A
*542 ANTENNA_input9_A
*543 ANTENNA_output39_A
*544 FILLER_0_109
*545 FILLER_0_113
*546 FILLER_0_125
*547 FILLER_0_137
*548 FILLER_0_141
*549 FILLER_0_15
*550 FILLER_0_153
*551 FILLER_0_165
*552 FILLER_0_169
*553 FILLER_0_181
*554 FILLER_0_193
*555 FILLER_0_197
*556 FILLER_0_209
*557 FILLER_0_221
*558 FILLER_0_225
*559 FILLER_0_237
*560 FILLER_0_249
*561 FILLER_0_253
*562 FILLER_0_265
*563 FILLER_0_27
*564 FILLER_0_277
*565 FILLER_0_281
*566 FILLER_0_29
*567 FILLER_0_293
*568 FILLER_0_3
*569 FILLER_0_41
*570 FILLER_0_53
*571 FILLER_0_57
*572 FILLER_0_69
*573 FILLER_0_81
*574 FILLER_0_85
*575 FILLER_0_97
*576 FILLER_10_109
*577 FILLER_10_121
*578 FILLER_10_133
*579 FILLER_10_139
*580 FILLER_10_141
*581 FILLER_10_153
*582 FILLER_10_18
*583 FILLER_10_184
*584 FILLER_10_189
*585 FILLER_10_195
*586 FILLER_10_197
*587 FILLER_10_227
*588 FILLER_10_239
*589 FILLER_10_251
*590 FILLER_10_26
*591 FILLER_10_273
*592 FILLER_10_285
*593 FILLER_10_40
*594 FILLER_10_52
*595 FILLER_10_78
*596 FILLER_10_85
*597 FILLER_10_97
*598 FILLER_11_108
*599 FILLER_11_115
*600 FILLER_11_127
*601 FILLER_11_13
*602 FILLER_11_139
*603 FILLER_11_151
*604 FILLER_11_163
*605 FILLER_11_167
*606 FILLER_11_169
*607 FILLER_11_177
*608 FILLER_11_220
*609 FILLER_11_245
*610 FILLER_11_25
*611 FILLER_11_258
*612 FILLER_11_270
*613 FILLER_11_278
*614 FILLER_11_281
*615 FILLER_11_293
*616 FILLER_11_39
*617 FILLER_11_51
*618 FILLER_11_55
*619 FILLER_11_57
*620 FILLER_11_80
*621 FILLER_11_92
*622 FILLER_11_98
*623 FILLER_12_124
*624 FILLER_12_136
*625 FILLER_12_161
*626 FILLER_12_173
*627 FILLER_12_185
*628 FILLER_12_193
*629 FILLER_12_197
*630 FILLER_12_209
*631 FILLER_12_232
*632 FILLER_12_236
*633 FILLER_12_240
*634 FILLER_12_253
*635 FILLER_12_265
*636 FILLER_12_27
*637 FILLER_12_277
*638 FILLER_12_289
*639 FILLER_12_297
*640 FILLER_12_39
*641 FILLER_12_5
*642 FILLER_12_51
*643 FILLER_12_63
*644 FILLER_12_76
*645 FILLER_12_85
*646 FILLER_12_93
*647 FILLER_13_102
*648 FILLER_13_122
*649 FILLER_13_134
*650 FILLER_13_149
*651 FILLER_13_161
*652 FILLER_13_167
*653 FILLER_13_169
*654 FILLER_13_181
*655 FILLER_13_20
*656 FILLER_13_202
*657 FILLER_13_214
*658 FILLER_13_222
*659 FILLER_13_225
*660 FILLER_13_236
*661 FILLER_13_262
*662 FILLER_13_274
*663 FILLER_13_281
*664 FILLER_13_293
*665 FILLER_13_32
*666 FILLER_13_44
*667 FILLER_13_66
*668 FILLER_13_78
*669 FILLER_13_8
*670 FILLER_13_90
*671 FILLER_14_106
*672 FILLER_14_123
*673 FILLER_14_135
*674 FILLER_14_139
*675 FILLER_14_150
*676 FILLER_14_162
*677 FILLER_14_174
*678 FILLER_14_186
*679 FILLER_14_194
*680 FILLER_14_20
*681 FILLER_14_206
*682 FILLER_14_218
*683 FILLER_14_230
*684 FILLER_14_242
*685 FILLER_14_250
*686 FILLER_14_253
*687 FILLER_14_265
*688 FILLER_14_277
*689 FILLER_14_289
*690 FILLER_14_29
*691 FILLER_14_297
*692 FILLER_14_41
*693 FILLER_14_74
*694 FILLER_14_8
*695 FILLER_14_94
*696 FILLER_15_10
*697 FILLER_15_102
*698 FILLER_15_110
*699 FILLER_15_133
*700 FILLER_15_137
*701 FILLER_15_158
*702 FILLER_15_166
*703 FILLER_15_169
*704 FILLER_15_181
*705 FILLER_15_193
*706 FILLER_15_200
*707 FILLER_15_208
*708 FILLER_15_22
*709 FILLER_15_220
*710 FILLER_15_225
*711 FILLER_15_237
*712 FILLER_15_241
*713 FILLER_15_260
*714 FILLER_15_272
*715 FILLER_15_281
*716 FILLER_15_293
*717 FILLER_15_33
*718 FILLER_15_45
*719 FILLER_15_53
*720 FILLER_15_77
*721 FILLER_15_81
*722 FILLER_16_107
*723 FILLER_16_119
*724 FILLER_16_131
*725 FILLER_16_139
*726 FILLER_16_14
*727 FILLER_16_163
*728 FILLER_16_169
*729 FILLER_16_175
*730 FILLER_16_197
*731 FILLER_16_209
*732 FILLER_16_232
*733 FILLER_16_244
*734 FILLER_16_262
*735 FILLER_16_274
*736 FILLER_16_286
*737 FILLER_16_298
*738 FILLER_16_42
*739 FILLER_16_54
*740 FILLER_16_6
*741 FILLER_16_66
*742 FILLER_16_74
*743 FILLER_17_110
*744 FILLER_17_113
*745 FILLER_17_125
*746 FILLER_17_129
*747 FILLER_17_167
*748 FILLER_17_179
*749 FILLER_17_18
*750 FILLER_17_196
*751 FILLER_17_208
*752 FILLER_17_220
*753 FILLER_17_234
*754 FILLER_17_258
*755 FILLER_17_26
*756 FILLER_17_270
*757 FILLER_17_278
*758 FILLER_17_281
*759 FILLER_17_293
*760 FILLER_17_38
*761 FILLER_17_50
*762 FILLER_17_57
*763 FILLER_17_69
*764 FILLER_17_81
*765 FILLER_17_87
*766 FILLER_18_109
*767 FILLER_18_136
*768 FILLER_18_141
*769 FILLER_18_149
*770 FILLER_18_15
*771 FILLER_18_180
*772 FILLER_18_192
*773 FILLER_18_197
*774 FILLER_18_209
*775 FILLER_18_22
*776 FILLER_18_221
*777 FILLER_18_227
*778 FILLER_18_239
*779 FILLER_18_249
*780 FILLER_18_257
*781 FILLER_18_269
*782 FILLER_18_281
*783 FILLER_18_29
*784 FILLER_18_293
*785 FILLER_18_35
*786 FILLER_18_47
*787 FILLER_18_59
*788 FILLER_18_71
*789 FILLER_18_83
*790 FILLER_18_85
*791 FILLER_18_97
*792 FILLER_19_10
*793 FILLER_19_101
*794 FILLER_19_109
*795 FILLER_19_143
*796 FILLER_19_155
*797 FILLER_19_162
*798 FILLER_19_171
*799 FILLER_19_183
*800 FILLER_19_19
*801 FILLER_19_209
*802 FILLER_19_221
*803 FILLER_19_225
*804 FILLER_19_237
*805 FILLER_19_249
*806 FILLER_19_26
*807 FILLER_19_261
*808 FILLER_19_273
*809 FILLER_19_279
*810 FILLER_19_281
*811 FILLER_19_293
*812 FILLER_19_38
*813 FILLER_19_50
*814 FILLER_19_64
*815 FILLER_19_76
*816 FILLER_19_89
*817 FILLER_1_111
*818 FILLER_1_113
*819 FILLER_1_117
*820 FILLER_1_129
*821 FILLER_1_141
*822 FILLER_1_15
*823 FILLER_1_153
*824 FILLER_1_165
*825 FILLER_1_169
*826 FILLER_1_173
*827 FILLER_1_183
*828 FILLER_1_195
*829 FILLER_1_203
*830 FILLER_1_215
*831 FILLER_1_223
*832 FILLER_1_225
*833 FILLER_1_237
*834 FILLER_1_249
*835 FILLER_1_261
*836 FILLER_1_27
*837 FILLER_1_273
*838 FILLER_1_279
*839 FILLER_1_281
*840 FILLER_1_293
*841 FILLER_1_3
*842 FILLER_1_35
*843 FILLER_1_45
*844 FILLER_1_53
*845 FILLER_1_57
*846 FILLER_1_69
*847 FILLER_1_79
*848 FILLER_20_13
*849 FILLER_20_136
*850 FILLER_20_141
*851 FILLER_20_154
*852 FILLER_20_166
*853 FILLER_20_178
*854 FILLER_20_190
*855 FILLER_20_197
*856 FILLER_20_209
*857 FILLER_20_221
*858 FILLER_20_233
*859 FILLER_20_245
*860 FILLER_20_251
*861 FILLER_20_262
*862 FILLER_20_274
*863 FILLER_20_286
*864 FILLER_20_298
*865 FILLER_20_39
*866 FILLER_20_51
*867 FILLER_20_73
*868 FILLER_20_98
*869 FILLER_21_105
*870 FILLER_21_111
*871 FILLER_21_113
*872 FILLER_21_128
*873 FILLER_21_140
*874 FILLER_21_164
*875 FILLER_21_169
*876 FILLER_21_17
*877 FILLER_21_177
*878 FILLER_21_200
*879 FILLER_21_212
*880 FILLER_21_225
*881 FILLER_21_235
*882 FILLER_21_268
*883 FILLER_21_281
*884 FILLER_21_293
*885 FILLER_21_34
*886 FILLER_21_46
*887 FILLER_21_54
*888 FILLER_21_57
*889 FILLER_21_63
*890 FILLER_21_71
*891 FILLER_21_80
*892 FILLER_21_9
*893 FILLER_21_93
*894 FILLER_22_10
*895 FILLER_22_109
*896 FILLER_22_121
*897 FILLER_22_133
*898 FILLER_22_139
*899 FILLER_22_141
*900 FILLER_22_173
*901 FILLER_22_18
*902 FILLER_22_204
*903 FILLER_22_212
*904 FILLER_22_240
*905 FILLER_22_253
*906 FILLER_22_265
*907 FILLER_22_27
*908 FILLER_22_277
*909 FILLER_22_289
*910 FILLER_22_297
*911 FILLER_22_35
*912 FILLER_22_47
*913 FILLER_22_59
*914 FILLER_22_71
*915 FILLER_22_83
*916 FILLER_22_85
*917 FILLER_22_97
*918 FILLER_23_110
*919 FILLER_23_113
*920 FILLER_23_125
*921 FILLER_23_135
*922 FILLER_23_147
*923 FILLER_23_159
*924 FILLER_23_167
*925 FILLER_23_169
*926 FILLER_23_181
*927 FILLER_23_189
*928 FILLER_23_197
*929 FILLER_23_205
*930 FILLER_23_21
*931 FILLER_23_213
*932 FILLER_23_223
*933 FILLER_23_245
*934 FILLER_23_257
*935 FILLER_23_269
*936 FILLER_23_277
*937 FILLER_23_281
*938 FILLER_23_293
*939 FILLER_23_35
*940 FILLER_23_47
*941 FILLER_23_55
*942 FILLER_23_57
*943 FILLER_23_69
*944 FILLER_23_81
*945 FILLER_23_85
*946 FILLER_23_9
*947 FILLER_23_98
*948 FILLER_24_106
*949 FILLER_24_118
*950 FILLER_24_135
*951 FILLER_24_139
*952 FILLER_24_150
*953 FILLER_24_162
*954 FILLER_24_170
*955 FILLER_24_193
*956 FILLER_24_197
*957 FILLER_24_227
*958 FILLER_24_239
*959 FILLER_24_251
*960 FILLER_24_253
*961 FILLER_24_26
*962 FILLER_24_265
*963 FILLER_24_277
*964 FILLER_24_289
*965 FILLER_24_297
*966 FILLER_24_32
*967 FILLER_24_44
*968 FILLER_24_48
*969 FILLER_24_56
*970 FILLER_24_64
*971 FILLER_24_76
*972 FILLER_24_85
*973 FILLER_25_100
*974 FILLER_25_113
*975 FILLER_25_128
*976 FILLER_25_134
*977 FILLER_25_155
*978 FILLER_25_167
*979 FILLER_25_169
*980 FILLER_25_181
*981 FILLER_25_187
*982 FILLER_25_193
*983 FILLER_25_205
*984 FILLER_25_217
*985 FILLER_25_223
*986 FILLER_25_225
*987 FILLER_25_237
*988 FILLER_25_249
*989 FILLER_25_261
*990 FILLER_25_273
*991 FILLER_25_279
*992 FILLER_25_28
*993 FILLER_25_281
*994 FILLER_25_293
*995 FILLER_25_40
*996 FILLER_25_48
*997 FILLER_25_57
*998 FILLER_25_71
*999 FILLER_25_83
*1000 FILLER_25_9
*1001 FILLER_26_131
*1002 FILLER_26_139
*1003 FILLER_26_141
*1004 FILLER_26_153
*1005 FILLER_26_165
*1006 FILLER_26_171
*1007 FILLER_26_192
*1008 FILLER_26_197
*1009 FILLER_26_206
*1010 FILLER_26_218
*1011 FILLER_26_230
*1012 FILLER_26_238
*1013 FILLER_26_248
*1014 FILLER_26_273
*1015 FILLER_26_285
*1016 FILLER_26_29
*1017 FILLER_26_297
*1018 FILLER_26_41
*1019 FILLER_26_49
*1020 FILLER_26_65
*1021 FILLER_26_73
*1022 FILLER_26_82
*1023 FILLER_26_85
*1024 FILLER_26_9
*1025 FILLER_26_97
*1026 FILLER_27_102
*1027 FILLER_27_110
*1028 FILLER_27_113
*1029 FILLER_27_125
*1030 FILLER_27_137
*1031 FILLER_27_149
*1032 FILLER_27_161
*1033 FILLER_27_167
*1034 FILLER_27_169
*1035 FILLER_27_196
*1036 FILLER_27_208
*1037 FILLER_27_21
*1038 FILLER_27_232
*1039 FILLER_27_256
*1040 FILLER_27_268
*1041 FILLER_27_281
*1042 FILLER_27_293
*1043 FILLER_27_33
*1044 FILLER_27_45
*1045 FILLER_27_73
*1046 FILLER_27_9
*1047 FILLER_27_90
*1048 FILLER_28_109
*1049 FILLER_28_121
*1050 FILLER_28_133
*1051 FILLER_28_139
*1052 FILLER_28_141
*1053 FILLER_28_147
*1054 FILLER_28_15
*1055 FILLER_28_166
*1056 FILLER_28_178
*1057 FILLER_28_189
*1058 FILLER_28_195
*1059 FILLER_28_197
*1060 FILLER_28_233
*1061 FILLER_28_245
*1062 FILLER_28_25
*1063 FILLER_28_251
*1064 FILLER_28_253
*1065 FILLER_28_265
*1066 FILLER_28_277
*1067 FILLER_28_289
*1068 FILLER_28_29
*1069 FILLER_28_297
*1070 FILLER_28_41
*1071 FILLER_28_49
*1072 FILLER_28_56
*1073 FILLER_28_60
*1074 FILLER_28_68
*1075 FILLER_28_80
*1076 FILLER_28_85
*1077 FILLER_28_9
*1078 FILLER_28_97
*1079 FILLER_29_110
*1080 FILLER_29_113
*1081 FILLER_29_117
*1082 FILLER_29_129
*1083 FILLER_29_141
*1084 FILLER_29_165
*1085 FILLER_29_169
*1086 FILLER_29_181
*1087 FILLER_29_193
*1088 FILLER_29_205
*1089 FILLER_29_213
*1090 FILLER_29_218
*1091 FILLER_29_225
*1092 FILLER_29_23
*1093 FILLER_29_237
*1094 FILLER_29_245
*1095 FILLER_29_257
*1096 FILLER_29_269
*1097 FILLER_29_277
*1098 FILLER_29_281
*1099 FILLER_29_293
*1100 FILLER_29_34
*1101 FILLER_29_46
*1102 FILLER_29_54
*1103 FILLER_29_57
*1104 FILLER_29_69
*1105 FILLER_29_81
*1106 FILLER_29_9
*1107 FILLER_29_98
*1108 FILLER_2_100
*1109 FILLER_2_130
*1110 FILLER_2_138
*1111 FILLER_2_15
*1112 FILLER_2_161
*1113 FILLER_2_185
*1114 FILLER_2_192
*1115 FILLER_2_237
*1116 FILLER_2_249
*1117 FILLER_2_253
*1118 FILLER_2_265
*1119 FILLER_2_27
*1120 FILLER_2_277
*1121 FILLER_2_289
*1122 FILLER_2_297
*1123 FILLER_2_3
*1124 FILLER_2_49
*1125 FILLER_2_57
*1126 FILLER_2_81
*1127 FILLER_2_94
*1128 FILLER_30_109
*1129 FILLER_30_132
*1130 FILLER_30_141
*1131 FILLER_30_165
*1132 FILLER_30_177
*1133 FILLER_30_189
*1134 FILLER_30_195
*1135 FILLER_30_197
*1136 FILLER_30_209
*1137 FILLER_30_221
*1138 FILLER_30_232
*1139 FILLER_30_245
*1140 FILLER_30_251
*1141 FILLER_30_258
*1142 FILLER_30_270
*1143 FILLER_30_282
*1144 FILLER_30_294
*1145 FILLER_30_298
*1146 FILLER_30_38
*1147 FILLER_30_50
*1148 FILLER_30_62
*1149 FILLER_30_74
*1150 FILLER_30_8
*1151 FILLER_30_82
*1152 FILLER_30_85
*1153 FILLER_30_97
*1154 FILLER_31_107
*1155 FILLER_31_111
*1156 FILLER_31_113
*1157 FILLER_31_121
*1158 FILLER_31_131
*1159 FILLER_31_143
*1160 FILLER_31_15
*1161 FILLER_31_151
*1162 FILLER_31_157
*1163 FILLER_31_165
*1164 FILLER_31_169
*1165 FILLER_31_181
*1166 FILLER_31_19
*1167 FILLER_31_204
*1168 FILLER_31_216
*1169 FILLER_31_225
*1170 FILLER_31_233
*1171 FILLER_31_258
*1172 FILLER_31_270
*1173 FILLER_31_278
*1174 FILLER_31_281
*1175 FILLER_31_293
*1176 FILLER_31_31
*1177 FILLER_31_43
*1178 FILLER_31_57
*1179 FILLER_31_71
*1180 FILLER_31_8
*1181 FILLER_31_83
*1182 FILLER_31_91
*1183 FILLER_31_95
*1184 FILLER_32_102
*1185 FILLER_32_114
*1186 FILLER_32_138
*1187 FILLER_32_141
*1188 FILLER_32_153
*1189 FILLER_32_16
*1190 FILLER_32_165
*1191 FILLER_32_177
*1192 FILLER_32_197
*1193 FILLER_32_209
*1194 FILLER_32_238
*1195 FILLER_32_24
*1196 FILLER_32_245
*1197 FILLER_32_251
*1198 FILLER_32_273
*1199 FILLER_32_285
*1200 FILLER_32_29
*1201 FILLER_32_297
*1202 FILLER_32_41
*1203 FILLER_32_53
*1204 FILLER_32_60
*1205 FILLER_32_71
*1206 FILLER_32_8
*1207 FILLER_32_83
*1208 FILLER_32_85
*1209 FILLER_33_101
*1210 FILLER_33_109
*1211 FILLER_33_113
*1212 FILLER_33_125
*1213 FILLER_33_137
*1214 FILLER_33_149
*1215 FILLER_33_161
*1216 FILLER_33_167
*1217 FILLER_33_169
*1218 FILLER_33_181
*1219 FILLER_33_193
*1220 FILLER_33_205
*1221 FILLER_33_217
*1222 FILLER_33_223
*1223 FILLER_33_225
*1224 FILLER_33_23
*1225 FILLER_33_237
*1226 FILLER_33_249
*1227 FILLER_33_261
*1228 FILLER_33_273
*1229 FILLER_33_279
*1230 FILLER_33_281
*1231 FILLER_33_293
*1232 FILLER_33_35
*1233 FILLER_33_47
*1234 FILLER_33_55
*1235 FILLER_33_57
*1236 FILLER_33_69
*1237 FILLER_33_8
*1238 FILLER_33_81
*1239 FILLER_33_85
*1240 FILLER_34_107
*1241 FILLER_34_119
*1242 FILLER_34_13
*1243 FILLER_34_131
*1244 FILLER_34_139
*1245 FILLER_34_141
*1246 FILLER_34_153
*1247 FILLER_34_165
*1248 FILLER_34_177
*1249 FILLER_34_189
*1250 FILLER_34_195
*1251 FILLER_34_197
*1252 FILLER_34_209
*1253 FILLER_34_221
*1254 FILLER_34_233
*1255 FILLER_34_245
*1256 FILLER_34_25
*1257 FILLER_34_251
*1258 FILLER_34_253
*1259 FILLER_34_265
*1260 FILLER_34_277
*1261 FILLER_34_289
*1262 FILLER_34_297
*1263 FILLER_34_38
*1264 FILLER_34_44
*1265 FILLER_34_48
*1266 FILLER_34_60
*1267 FILLER_34_71
*1268 FILLER_34_83
*1269 FILLER_34_85
*1270 FILLER_34_89
*1271 FILLER_34_95
*1272 FILLER_35_10
*1273 FILLER_35_105
*1274 FILLER_35_111
*1275 FILLER_35_113
*1276 FILLER_35_125
*1277 FILLER_35_137
*1278 FILLER_35_149
*1279 FILLER_35_161
*1280 FILLER_35_167
*1281 FILLER_35_169
*1282 FILLER_35_181
*1283 FILLER_35_193
*1284 FILLER_35_205
*1285 FILLER_35_21
*1286 FILLER_35_217
*1287 FILLER_35_223
*1288 FILLER_35_225
*1289 FILLER_35_237
*1290 FILLER_35_249
*1291 FILLER_35_261
*1292 FILLER_35_273
*1293 FILLER_35_279
*1294 FILLER_35_281
*1295 FILLER_35_293
*1296 FILLER_35_33
*1297 FILLER_35_39
*1298 FILLER_35_43
*1299 FILLER_35_51
*1300 FILLER_35_57
*1301 FILLER_35_81
*1302 FILLER_35_93
*1303 FILLER_36_105
*1304 FILLER_36_117
*1305 FILLER_36_129
*1306 FILLER_36_137
*1307 FILLER_36_141
*1308 FILLER_36_153
*1309 FILLER_36_165
*1310 FILLER_36_177
*1311 FILLER_36_189
*1312 FILLER_36_195
*1313 FILLER_36_197
*1314 FILLER_36_209
*1315 FILLER_36_221
*1316 FILLER_36_23
*1317 FILLER_36_233
*1318 FILLER_36_245
*1319 FILLER_36_251
*1320 FILLER_36_253
*1321 FILLER_36_265
*1322 FILLER_36_27
*1323 FILLER_36_277
*1324 FILLER_36_289
*1325 FILLER_36_297
*1326 FILLER_36_36
*1327 FILLER_36_44
*1328 FILLER_36_52
*1329 FILLER_36_67
*1330 FILLER_36_79
*1331 FILLER_36_83
*1332 FILLER_36_9
*1333 FILLER_36_93
*1334 FILLER_37_111
*1335 FILLER_37_113
*1336 FILLER_37_125
*1337 FILLER_37_137
*1338 FILLER_37_149
*1339 FILLER_37_161
*1340 FILLER_37_167
*1341 FILLER_37_169
*1342 FILLER_37_181
*1343 FILLER_37_193
*1344 FILLER_37_205
*1345 FILLER_37_217
*1346 FILLER_37_223
*1347 FILLER_37_225
*1348 FILLER_37_237
*1349 FILLER_37_249
*1350 FILLER_37_261
*1351 FILLER_37_273
*1352 FILLER_37_279
*1353 FILLER_37_281
*1354 FILLER_37_29
*1355 FILLER_37_41
*1356 FILLER_37_53
*1357 FILLER_37_57
*1358 FILLER_37_69
*1359 FILLER_37_75
*1360 FILLER_37_87
*1361 FILLER_37_99
*1362 FILLER_38_109
*1363 FILLER_38_121
*1364 FILLER_38_13
*1365 FILLER_38_133
*1366 FILLER_38_139
*1367 FILLER_38_141
*1368 FILLER_38_153
*1369 FILLER_38_165
*1370 FILLER_38_177
*1371 FILLER_38_189
*1372 FILLER_38_195
*1373 FILLER_38_197
*1374 FILLER_38_209
*1375 FILLER_38_221
*1376 FILLER_38_233
*1377 FILLER_38_245
*1378 FILLER_38_251
*1379 FILLER_38_253
*1380 FILLER_38_265
*1381 FILLER_38_277
*1382 FILLER_38_289
*1383 FILLER_38_297
*1384 FILLER_38_35
*1385 FILLER_38_40
*1386 FILLER_38_52
*1387 FILLER_38_60
*1388 FILLER_38_82
*1389 FILLER_38_85
*1390 FILLER_38_97
*1391 FILLER_39_108
*1392 FILLER_39_11
*1393 FILLER_39_113
*1394 FILLER_39_125
*1395 FILLER_39_137
*1396 FILLER_39_149
*1397 FILLER_39_161
*1398 FILLER_39_167
*1399 FILLER_39_169
*1400 FILLER_39_181
*1401 FILLER_39_193
*1402 FILLER_39_205
*1403 FILLER_39_217
*1404 FILLER_39_223
*1405 FILLER_39_225
*1406 FILLER_39_237
*1407 FILLER_39_249
*1408 FILLER_39_261
*1409 FILLER_39_27
*1410 FILLER_39_273
*1411 FILLER_39_279
*1412 FILLER_39_281
*1413 FILLER_39_293
*1414 FILLER_39_33
*1415 FILLER_39_37
*1416 FILLER_39_49
*1417 FILLER_39_55
*1418 FILLER_39_57
*1419 FILLER_39_70
*1420 FILLER_39_84
*1421 FILLER_39_96
*1422 FILLER_3_111
*1423 FILLER_3_124
*1424 FILLER_3_136
*1425 FILLER_3_15
*1426 FILLER_3_162
*1427 FILLER_3_169
*1428 FILLER_3_181
*1429 FILLER_3_200
*1430 FILLER_3_212
*1431 FILLER_3_243
*1432 FILLER_3_25
*1433 FILLER_3_255
*1434 FILLER_3_267
*1435 FILLER_3_279
*1436 FILLER_3_281
*1437 FILLER_3_293
*1438 FILLER_3_3
*1439 FILLER_3_44
*1440 FILLER_3_57
*1441 FILLER_3_87
*1442 FILLER_3_99
*1443 FILLER_40_109
*1444 FILLER_40_121
*1445 FILLER_40_133
*1446 FILLER_40_139
*1447 FILLER_40_141
*1448 FILLER_40_153
*1449 FILLER_40_165
*1450 FILLER_40_177
*1451 FILLER_40_189
*1452 FILLER_40_195
*1453 FILLER_40_197
*1454 FILLER_40_20
*1455 FILLER_40_209
*1456 FILLER_40_221
*1457 FILLER_40_233
*1458 FILLER_40_245
*1459 FILLER_40_251
*1460 FILLER_40_253
*1461 FILLER_40_265
*1462 FILLER_40_277
*1463 FILLER_40_289
*1464 FILLER_40_29
*1465 FILLER_40_297
*1466 FILLER_40_41
*1467 FILLER_40_53
*1468 FILLER_40_61
*1469 FILLER_40_69
*1470 FILLER_40_8
*1471 FILLER_40_81
*1472 FILLER_40_85
*1473 FILLER_40_97
*1474 FILLER_41_105
*1475 FILLER_41_111
*1476 FILLER_41_113
*1477 FILLER_41_125
*1478 FILLER_41_137
*1479 FILLER_41_149
*1480 FILLER_41_161
*1481 FILLER_41_167
*1482 FILLER_41_169
*1483 FILLER_41_181
*1484 FILLER_41_193
*1485 FILLER_41_205
*1486 FILLER_41_21
*1487 FILLER_41_217
*1488 FILLER_41_223
*1489 FILLER_41_225
*1490 FILLER_41_237
*1491 FILLER_41_249
*1492 FILLER_41_261
*1493 FILLER_41_273
*1494 FILLER_41_279
*1495 FILLER_41_281
*1496 FILLER_41_293
*1497 FILLER_41_33
*1498 FILLER_41_45
*1499 FILLER_41_53
*1500 FILLER_41_57
*1501 FILLER_41_69
*1502 FILLER_41_81
*1503 FILLER_41_9
*1504 FILLER_41_93
*1505 FILLER_42_109
*1506 FILLER_42_121
*1507 FILLER_42_133
*1508 FILLER_42_139
*1509 FILLER_42_141
*1510 FILLER_42_153
*1511 FILLER_42_165
*1512 FILLER_42_177
*1513 FILLER_42_189
*1514 FILLER_42_195
*1515 FILLER_42_197
*1516 FILLER_42_209
*1517 FILLER_42_21
*1518 FILLER_42_221
*1519 FILLER_42_233
*1520 FILLER_42_245
*1521 FILLER_42_251
*1522 FILLER_42_253
*1523 FILLER_42_265
*1524 FILLER_42_27
*1525 FILLER_42_277
*1526 FILLER_42_289
*1527 FILLER_42_29
*1528 FILLER_42_297
*1529 FILLER_42_41
*1530 FILLER_42_53
*1531 FILLER_42_65
*1532 FILLER_42_77
*1533 FILLER_42_83
*1534 FILLER_42_85
*1535 FILLER_42_9
*1536 FILLER_42_97
*1537 FILLER_43_105
*1538 FILLER_43_111
*1539 FILLER_43_113
*1540 FILLER_43_125
*1541 FILLER_43_137
*1542 FILLER_43_149
*1543 FILLER_43_15
*1544 FILLER_43_161
*1545 FILLER_43_167
*1546 FILLER_43_169
*1547 FILLER_43_181
*1548 FILLER_43_193
*1549 FILLER_43_205
*1550 FILLER_43_217
*1551 FILLER_43_223
*1552 FILLER_43_225
*1553 FILLER_43_237
*1554 FILLER_43_249
*1555 FILLER_43_261
*1556 FILLER_43_27
*1557 FILLER_43_273
*1558 FILLER_43_279
*1559 FILLER_43_281
*1560 FILLER_43_293
*1561 FILLER_43_3
*1562 FILLER_43_39
*1563 FILLER_43_51
*1564 FILLER_43_55
*1565 FILLER_43_57
*1566 FILLER_43_69
*1567 FILLER_43_81
*1568 FILLER_43_93
*1569 FILLER_44_109
*1570 FILLER_44_121
*1571 FILLER_44_133
*1572 FILLER_44_139
*1573 FILLER_44_141
*1574 FILLER_44_15
*1575 FILLER_44_153
*1576 FILLER_44_165
*1577 FILLER_44_177
*1578 FILLER_44_189
*1579 FILLER_44_195
*1580 FILLER_44_197
*1581 FILLER_44_209
*1582 FILLER_44_221
*1583 FILLER_44_233
*1584 FILLER_44_245
*1585 FILLER_44_251
*1586 FILLER_44_253
*1587 FILLER_44_265
*1588 FILLER_44_27
*1589 FILLER_44_277
*1590 FILLER_44_289
*1591 FILLER_44_29
*1592 FILLER_44_297
*1593 FILLER_44_3
*1594 FILLER_44_41
*1595 FILLER_44_53
*1596 FILLER_44_65
*1597 FILLER_44_77
*1598 FILLER_44_83
*1599 FILLER_44_85
*1600 FILLER_44_97
*1601 FILLER_45_105
*1602 FILLER_45_111
*1603 FILLER_45_113
*1604 FILLER_45_125
*1605 FILLER_45_137
*1606 FILLER_45_149
*1607 FILLER_45_15
*1608 FILLER_45_161
*1609 FILLER_45_167
*1610 FILLER_45_169
*1611 FILLER_45_181
*1612 FILLER_45_193
*1613 FILLER_45_205
*1614 FILLER_45_217
*1615 FILLER_45_223
*1616 FILLER_45_225
*1617 FILLER_45_237
*1618 FILLER_45_249
*1619 FILLER_45_261
*1620 FILLER_45_27
*1621 FILLER_45_273
*1622 FILLER_45_279
*1623 FILLER_45_281
*1624 FILLER_45_293
*1625 FILLER_45_3
*1626 FILLER_45_39
*1627 FILLER_45_51
*1628 FILLER_45_55
*1629 FILLER_45_57
*1630 FILLER_45_69
*1631 FILLER_45_81
*1632 FILLER_45_93
*1633 FILLER_46_109
*1634 FILLER_46_113
*1635 FILLER_46_125
*1636 FILLER_46_137
*1637 FILLER_46_141
*1638 FILLER_46_15
*1639 FILLER_46_153
*1640 FILLER_46_165
*1641 FILLER_46_169
*1642 FILLER_46_181
*1643 FILLER_46_193
*1644 FILLER_46_197
*1645 FILLER_46_209
*1646 FILLER_46_221
*1647 FILLER_46_225
*1648 FILLER_46_237
*1649 FILLER_46_249
*1650 FILLER_46_253
*1651 FILLER_46_265
*1652 FILLER_46_27
*1653 FILLER_46_277
*1654 FILLER_46_281
*1655 FILLER_46_29
*1656 FILLER_46_293
*1657 FILLER_46_3
*1658 FILLER_46_41
*1659 FILLER_46_53
*1660 FILLER_46_57
*1661 FILLER_46_69
*1662 FILLER_46_81