*SPEF "ieee 1481-1999"
*DESIGN "system_top"
*DATE "08:49:44 Saturday January 24, 2026"
*VENDOR "The OpenROAD Project"
*PROGRAM "OpenROAD"
*VERSION "edf00dff99f6c40d67a30c0e22a8191c5d2ed9d6"
*DESIGN_FLOW "NAME_SCOPE LOCAL" "PIN_CAP NONE"
*DIVIDER /
*DELIMITER :
*BUS_DELIMITER []
*T_UNIT 1 NS
*C_UNIT 1 PF
*R_UNIT 1 OHM
*L_UNIT 1 HENRY

*NAME_MAP
*1 busy_o
*2 clk
*3 data_i[0]
*4 data_i[10]
*5 data_i[11]
*6 data_i[12]
*7 data_i[13]
*8 data_i[14]
*9 data_i[15]
*10 data_i[1]
*11 data_i[2]
*12 data_i[3]
*13 data_i[4]
*14 data_i[5]
*15 data_i[6]
*16 data_i[7]
*17 data_i[8]
*18 data_i[9]
*19 data_o[0]
*20 data_o[1]
*21 data_o[2]
*22 data_o[3]
*23 data_o[4]
*24 data_o[5]
*25 data_o[6]
*26 data_o[7]
*27 dvalid_i
*28 rst_n
*29 valid_o
*32 clknet_0_clk
*33 clknet_1_0__leaf_clk
*34 clknet_1_1__leaf_clk
*35 core_to_sipo_data
*36 core_to_sipo_valid
*37 fifo_data_out\[0\]
*38 fifo_data_out\[10\]
*39 fifo_data_out\[11\]
*40 fifo_data_out\[12\]
*41 fifo_data_out\[13\]
*42 fifo_data_out\[14\]
*43 fifo_data_out\[15\]
*44 fifo_data_out\[1\]
*45 fifo_data_out\[2\]
*46 fifo_data_out\[3\]
*47 fifo_data_out\[4\]
*48 fifo_data_out\[5\]
*49 fifo_data_out\[6\]
*50 fifo_data_out\[7\]
*51 fifo_data_out\[8\]
*52 fifo_data_out\[9\]
*53 fifo_empty
*54 net1
*55 net10
*56 net100
*57 net101
*58 net102
*59 net103
*60 net104
*61 net105
*62 net106
*63 net107
*64 net108
*65 net109
*66 net11
*67 net110
*68 net111
*69 net112
*70 net113
*71 net114
*72 net115
*73 net116
*74 net117
*75 net118
*76 net119
*77 net12
*78 net120
*79 net121
*80 net122
*81 net13
*82 net14
*83 net15
*84 net16
*85 net17
*86 net18
*87 net19
*88 net2
*89 net20
*90 net21
*91 net22
*92 net23
*93 net24
*94 net25
*95 net26
*96 net27
*97 net28
*98 net29
*99 net3
*100 net30
*101 net31
*102 net32
*103 net33
*104 net34
*105 net35
*106 net36
*107 net37
*108 net38
*109 net39
*110 net4
*111 net40
*112 net41
*113 net42
*114 net43
*115 net44
*116 net45
*117 net46
*118 net47
*119 net48
*120 net49
*121 net5
*122 net50
*123 net51
*124 net52
*125 net53
*126 net54
*127 net55
*128 net56
*129 net57
*130 net58
*131 net59
*132 net6
*133 net60
*134 net61
*135 net62
*136 net63
*137 net64
*138 net65
*139 net66
*140 net67
*141 net68
*142 net69
*143 net7
*144 net70
*145 net71
*146 net72
*147 net73
*148 net74
*149 net75
*150 net76
*151 net77
*152 net78
*153 net79
*154 net8
*155 net80
*156 net81
*157 net82
*158 net83
*159 net84
*160 net85
*161 net86
*162 net87
*163 net88
*164 net89
*165 net9
*166 net90
*167 net91
*168 net92
*169 net93
*170 net94
*171 net95
*172 net96
*173 net97
*174 net98
*175 net99
*176 piso_rd_en
*177 piso_to_core_data\[0\]
*178 piso_to_core_data\[1\]
*179 piso_to_core_valid
*180 ANTENNA_1
*181 ANTENNA_10
*182 ANTENNA_11
*183 ANTENNA_12
*184 ANTENNA_13
*185 ANTENNA_14
*186 ANTENNA_15
*187 ANTENNA_16
*188 ANTENNA_17
*189 ANTENNA_18
*190 ANTENNA_19
*191 ANTENNA_2
*192 ANTENNA_20
*193 ANTENNA_21
*194 ANTENNA_22
*195 ANTENNA_23
*196 ANTENNA_24
*197 ANTENNA_25
*198 ANTENNA_26
*199 ANTENNA_27
*200 ANTENNA_28
*201 ANTENNA_29
*202 ANTENNA_3
*203 ANTENNA_30
*204 ANTENNA_31
*205 ANTENNA_32
*206 ANTENNA_33
*207 ANTENNA_34
*208 ANTENNA_35
*209 ANTENNA_36
*210 ANTENNA_37
*211 ANTENNA_4
*212 ANTENNA_5
*213 ANTENNA_6
*214 ANTENNA_7
*215 ANTENNA_8
*216 ANTENNA_9
*217 FILLER_0_1005
*218 FILLER_0_1009
*219 FILLER_0_1021
*220 FILLER_0_1033
*221 FILLER_0_1037
*222 FILLER_0_1049
*223 FILLER_0_1061
*224 FILLER_0_1065
*225 FILLER_0_1077
*226 FILLER_0_1089
*227 FILLER_0_109
*228 FILLER_0_1093
*229 FILLER_0_1105
*230 FILLER_0_1117
*231 FILLER_0_1121
*232 FILLER_0_113
*233 FILLER_0_1133
*234 FILLER_0_1145
*235 FILLER_0_1149
*236 FILLER_0_1161
*237 FILLER_0_1173
*238 FILLER_0_1177
*239 FILLER_0_1189
*240 FILLER_0_1201
*241 FILLER_0_1205
*242 FILLER_0_1217
*243 FILLER_0_1229
*244 FILLER_0_1233
*245 FILLER_0_1245
*246 FILLER_0_125
*247 FILLER_0_1257
*248 FILLER_0_1261
*249 FILLER_0_1273
*250 FILLER_0_1285
*251 FILLER_0_1289
*252 FILLER_0_1301
*253 FILLER_0_1313
*254 FILLER_0_1317
*255 FILLER_0_1329
*256 FILLER_0_1341
*257 FILLER_0_1345
*258 FILLER_0_1357
*259 FILLER_0_1369
*260 FILLER_0_137
*261 FILLER_0_1373
*262 FILLER_0_1385
*263 FILLER_0_1397
*264 FILLER_0_1401
*265 FILLER_0_141
*266 FILLER_0_1413
*267 FILLER_0_1425
*268 FILLER_0_1429
*269 FILLER_0_1441
*270 FILLER_0_1453
*271 FILLER_0_1457
*272 FILLER_0_1469
*273 FILLER_0_1481
*274 FILLER_0_1485
*275 FILLER_0_1497
*276 FILLER_0_15
*277 FILLER_0_1509
*278 FILLER_0_1513
*279 FILLER_0_1525
*280 FILLER_0_153
*281 FILLER_0_1537
*282 FILLER_0_1541
*283 FILLER_0_1553
*284 FILLER_0_1565
*285 FILLER_0_1569
*286 FILLER_0_1581
*287 FILLER_0_1593
*288 FILLER_0_1597
*289 FILLER_0_1609
*290 FILLER_0_1621
*291 FILLER_0_1625
*292 FILLER_0_1642
*293 FILLER_0_165
*294 FILLER_0_1650
*295 FILLER_0_1653
*296 FILLER_0_1665
*297 FILLER_0_1677
*298 FILLER_0_1681
*299 FILLER_0_169
*300 FILLER_0_1693
*301 FILLER_0_1705
*302 FILLER_0_1709
*303 FILLER_0_1721
*304 FILLER_0_1733
*305 FILLER_0_1737
*306 FILLER_0_1749
*307 FILLER_0_1761
*308 FILLER_0_1765
*309 FILLER_0_1777
*310 FILLER_0_1789
*311 FILLER_0_1793
*312 FILLER_0_1805
*313 FILLER_0_181
*314 FILLER_0_1817
*315 FILLER_0_1821
*316 FILLER_0_1833
*317 FILLER_0_1845
*318 FILLER_0_1849
*319 FILLER_0_1861
*320 FILLER_0_1873
*321 FILLER_0_1877
*322 FILLER_0_1889
*323 FILLER_0_1901
*324 FILLER_0_1905
*325 FILLER_0_1917
*326 FILLER_0_1929
*327 FILLER_0_193
*328 FILLER_0_1933
*329 FILLER_0_1945
*330 FILLER_0_1957
*331 FILLER_0_1961
*332 FILLER_0_197
*333 FILLER_0_1973
*334 FILLER_0_1985
*335 FILLER_0_1989
*336 FILLER_0_2001
*337 FILLER_0_2013
*338 FILLER_0_2017
*339 FILLER_0_2029
*340 FILLER_0_2041
*341 FILLER_0_2045
*342 FILLER_0_2057
*343 FILLER_0_2069
*344 FILLER_0_2073
*345 FILLER_0_2085
*346 FILLER_0_209
*347 FILLER_0_2097
*348 FILLER_0_2101
*349 FILLER_0_2113
*350 FILLER_0_2125
*351 FILLER_0_2129
*352 FILLER_0_2141
*353 FILLER_0_2153
*354 FILLER_0_2157
*355 FILLER_0_2169
*356 FILLER_0_2181
*357 FILLER_0_2185
*358 FILLER_0_2197
*359 FILLER_0_2209
*360 FILLER_0_221
*361 FILLER_0_2213
*362 FILLER_0_2225
*363 FILLER_0_2237
*364 FILLER_0_2241
*365 FILLER_0_225
*366 FILLER_0_2253
*367 FILLER_0_2265
*368 FILLER_0_2269
*369 FILLER_0_2281
*370 FILLER_0_2293
*371 FILLER_0_2297
*372 FILLER_0_2309
*373 FILLER_0_2321
*374 FILLER_0_2325
*375 FILLER_0_2337
*376 FILLER_0_2349
*377 FILLER_0_2353
*378 FILLER_0_2365
*379 FILLER_0_237
*380 FILLER_0_2377
*381 FILLER_0_2381
*382 FILLER_0_2393
*383 FILLER_0_2405
*384 FILLER_0_2409
*385 FILLER_0_2421
*386 FILLER_0_2433
*387 FILLER_0_2437
*388 FILLER_0_2449
*389 FILLER_0_2461
*390 FILLER_0_2465
*391 FILLER_0_2477
*392 FILLER_0_2489
*393 FILLER_0_249
*394 FILLER_0_2493
*395 FILLER_0_2505
*396 FILLER_0_2517
*397 FILLER_0_2521
*398 FILLER_0_253
*399 FILLER_0_2533
*400 FILLER_0_2545
*401 FILLER_0_2549
*402 FILLER_0_2561
*403 FILLER_0_2573
*404 FILLER_0_2577
*405 FILLER_0_2589
*406 FILLER_0_2601
*407 FILLER_0_2605
*408 FILLER_0_2617
*409 FILLER_0_2629
*410 FILLER_0_2633
*411 FILLER_0_2645
*412 FILLER_0_265
*413 FILLER_0_2657
*414 FILLER_0_2661
*415 FILLER_0_2673
*416 FILLER_0_2685
*417 FILLER_0_2689
*418 FILLER_0_27
*419 FILLER_0_2701
*420 FILLER_0_2713
*421 FILLER_0_2717
*422 FILLER_0_2729
*423 FILLER_0_2741
*424 FILLER_0_2745
*425 FILLER_0_2757
*426 FILLER_0_2769
*427 FILLER_0_277
*428 FILLER_0_2773
*429 FILLER_0_2785
*430 FILLER_0_2797
*431 FILLER_0_2801
*432 FILLER_0_281
*433 FILLER_0_2813
*434 FILLER_0_2825
*435 FILLER_0_2829
*436 FILLER_0_2841
*437 FILLER_0_2853
*438 FILLER_0_2857
*439 FILLER_0_2869
*440 FILLER_0_2881
*441 FILLER_0_2885
*442 FILLER_0_2897
*443 FILLER_0_29
*444 FILLER_0_2909
*445 FILLER_0_2913
*446 FILLER_0_2925
*447 FILLER_0_293
*448 FILLER_0_2937
*449 FILLER_0_2941
*450 FILLER_0_2953
*451 FILLER_0_2965
*452 FILLER_0_2969
*453 FILLER_0_2981
*454 FILLER_0_2993
*455 FILLER_0_2997
*456 FILLER_0_3
*457 FILLER_0_3009
*458 FILLER_0_3021
*459 FILLER_0_3025
*460 FILLER_0_3037
*461 FILLER_0_3049
*462 FILLER_0_305
*463 FILLER_0_3053
*464 FILLER_0_3065
*465 FILLER_0_3077
*466 FILLER_0_3081
*467 FILLER_0_309
*468 FILLER_0_3093
*469 FILLER_0_3105
*470 FILLER_0_3109
*471 FILLER_0_3121
*472 FILLER_0_3133
*473 FILLER_0_3137
*474 FILLER_0_3149
*475 FILLER_0_3161
*476 FILLER_0_3165
*477 FILLER_0_3177
*478 FILLER_0_3189
*479 FILLER_0_3193
*480 FILLER_0_3205
*481 FILLER_0_321
*482 FILLER_0_3217
*483 FILLER_0_3221
*484 FILLER_0_333
*485 FILLER_0_337
*486 FILLER_0_349
*487 FILLER_0_361
*488 FILLER_0_365
*489 FILLER_0_377
*490 FILLER_0_389
*491 FILLER_0_393
*492 FILLER_0_405
*493 FILLER_0_41
*494 FILLER_0_417
*495 FILLER_0_421
*496 FILLER_0_433
*497 FILLER_0_445
*498 FILLER_0_449
*499 FILLER_0_461
*500 FILLER_0_473
*501 FILLER_0_477
*502 FILLER_0_489
*503 FILLER_0_501
*504 FILLER_0_505
*505 FILLER_0_517
*506 FILLER_0_529
*507 FILLER_0_53
*508 FILLER_0_533
*509 FILLER_0_545
*510 FILLER_0_557
*511 FILLER_0_561
*512 FILLER_0_57
*513 FILLER_0_573
*514 FILLER_0_585
*515 FILLER_0_589
*516 FILLER_0_601
*517 FILLER_0_613
*518 FILLER_0_617
*519 FILLER_0_629
*520 FILLER_0_641
*521 FILLER_0_645
*522 FILLER_0_657
*523 FILLER_0_669
*524 FILLER_0_673
*525 FILLER_0_685
*526 FILLER_0_69
*527 FILLER_0_697
*528 FILLER_0_701
*529 FILLER_0_713
*530 FILLER_0_725
*531 FILLER_0_729
*532 FILLER_0_741
*533 FILLER_0_753
*534 FILLER_0_757
*535 FILLER_0_769
*536 FILLER_0_781
*537 FILLER_0_785
*538 FILLER_0_797
*539 FILLER_0_809
*540 FILLER_0_81
*541 FILLER_0_813
*542 FILLER_0_825
*543 FILLER_0_837
*544 FILLER_0_841
*545 FILLER_0_85
*546 FILLER_0_853
*547 FILLER_0_865
*548 FILLER_0_869
*549 FILLER_0_881
*550 FILLER_0_893
*551 FILLER_0_897
*552 FILLER_0_909
*553 FILLER_0_921
*554 FILLER_0_925
*555 FILLER_0_937
*556 FILLER_0_949
*557 FILLER_0_953
*558 FILLER_0_965
*559 FILLER_0_97
*560 FILLER_0_977
*561 FILLER_0_981
*562 FILLER_0_993
*563 FILLER_100_15
*564 FILLER_100_2296
*565 FILLER_100_2308
*566 FILLER_100_2320
*567 FILLER_100_2322
*568 FILLER_100_2334
*569 FILLER_100_2346
*570 FILLER_100_2358
*571 FILLER_100_2370
*572 FILLER_100_2376
*573 FILLER_100_2378
*574 FILLER_100_2390
*575 FILLER_100_2402
*576 FILLER_100_2414
*577 FILLER_100_2426
*578 FILLER_100_2432
*579 FILLER_100_2434
*580 FILLER_100_2446
*581 FILLER_100_2458
*582 FILLER_100_2470
*583 FILLER_100_2482
*584 FILLER_100_2488
*585 FILLER_100_2490
*586 FILLER_100_2502
*587 FILLER_100_2514
*588 FILLER_100_2526
*589 FILLER_100_2538
*590 FILLER_100_2544
*591 FILLER_100_2546
*592 FILLER_100_2558
*593 FILLER_100_2570
*594 FILLER_100_2582
*595 FILLER_100_2594
*596 FILLER_100_2600
*597 FILLER_100_2602
*598 FILLER_100_2614
*599 FILLER_100_2626
*600 FILLER_100_2638
*601 FILLER_100_2650
*602 FILLER_100_2656
*603 FILLER_100_2658
*604 FILLER_100_2670
*605 FILLER_100_2682
*606 FILLER_100_2694
*607 FILLER_100_27
*608 FILLER_100_2706
*609 FILLER_100_2712
*610 FILLER_100_2714
*611 FILLER_100_2726
*612 FILLER_100_2738
*613 FILLER_100_2750
*614 FILLER_100_2762
*615 FILLER_100_2768
*616 FILLER_100_2770
*617 FILLER_100_2782
*618 FILLER_100_2794
*619 FILLER_100_2806
*620 FILLER_100_2818
*621 FILLER_100_2824
*622 FILLER_100_2826
*623 FILLER_100_2838
*624 FILLER_100_2850
*625 FILLER_100_2862
*626 FILLER_100_2870
*627 FILLER_100_2873
*628 FILLER_100_2879
*629 FILLER_100_2882
*630 FILLER_100_2894
*631 FILLER_100_29
*632 FILLER_100_2902
*633 FILLER_100_2909
*634 FILLER_100_2921
*635 FILLER_100_2933
*636 FILLER_100_2938
*637 FILLER_100_2950
*638 FILLER_100_2962
*639 FILLER_100_2974
*640 FILLER_100_2986
*641 FILLER_100_2992
*642 FILLER_100_2994
*643 FILLER_100_3
*644 FILLER_100_3006
*645 FILLER_100_3018
*646 FILLER_100_3030
*647 FILLER_100_3042
*648 FILLER_100_3048
*649 FILLER_100_3050
*650 FILLER_100_3062
*651 FILLER_100_3074
*652 FILLER_100_3086
*653 FILLER_100_3098
*654 FILLER_100_3104
*655 FILLER_100_3106
*656 FILLER_100_3118
*657 FILLER_100_3130
*658 FILLER_100_3142
*659 FILLER_100_3154
*660 FILLER_100_3160
*661 FILLER_100_3162
*662 FILLER_100_3174
*663 FILLER_100_3186
*664 FILLER_100_3198
*665 FILLER_100_3210
*666 FILLER_100_3216
*667 FILLER_100_3218
*668 FILLER_100_3230
*669 FILLER_100_41
*670 FILLER_100_53
*671 FILLER_100_65
*672 FILLER_101_15
*673 FILLER_101_2296
*674 FILLER_101_2308
*675 FILLER_101_2320
*676 FILLER_101_2332
*677 FILLER_101_2344
*678 FILLER_101_2348
*679 FILLER_101_2350
*680 FILLER_101_2362
*681 FILLER_101_2374
*682 FILLER_101_2386
*683 FILLER_101_2398
*684 FILLER_101_2404
*685 FILLER_101_2406
*686 FILLER_101_2418
*687 FILLER_101_2430
*688 FILLER_101_2442
*689 FILLER_101_2454
*690 FILLER_101_2460
*691 FILLER_101_2462
*692 FILLER_101_2474
*693 FILLER_101_2486
*694 FILLER_101_2498
*695 FILLER_101_2510
*696 FILLER_101_2516
*697 FILLER_101_2518
*698 FILLER_101_2530
*699 FILLER_101_2542
*700 FILLER_101_2554
*701 FILLER_101_2566
*702 FILLER_101_2572
*703 FILLER_101_2574
*704 FILLER_101_2586
*705 FILLER_101_2598
*706 FILLER_101_2610
*707 FILLER_101_2622
*708 FILLER_101_2628
*709 FILLER_101_2630
*710 FILLER_101_2642
*711 FILLER_101_2654
*712 FILLER_101_2666
*713 FILLER_101_2678
*714 FILLER_101_2684
*715 FILLER_101_2686
*716 FILLER_101_2698
*717 FILLER_101_27
*718 FILLER_101_2710
*719 FILLER_101_2722
*720 FILLER_101_2734
*721 FILLER_101_2740
*722 FILLER_101_2742
*723 FILLER_101_2754
*724 FILLER_101_2766
*725 FILLER_101_2778
*726 FILLER_101_2790
*727 FILLER_101_2796
*728 FILLER_101_2798
*729 FILLER_101_2810
*730 FILLER_101_2822
*731 FILLER_101_2834
*732 FILLER_101_2846
*733 FILLER_101_2852
*734 FILLER_101_2854
*735 FILLER_101_2866
*736 FILLER_101_2878
*737 FILLER_101_2890
*738 FILLER_101_2902
*739 FILLER_101_2908
*740 FILLER_101_2910
*741 FILLER_101_2922
*742 FILLER_101_2934
*743 FILLER_101_2946
*744 FILLER_101_2958
*745 FILLER_101_2964
*746 FILLER_101_2966
*747 FILLER_101_2978
*748 FILLER_101_2990
*749 FILLER_101_3
*750 FILLER_101_3002
*751 FILLER_101_3014
*752 FILLER_101_3020
*753 FILLER_101_3022
*754 FILLER_101_3034
*755 FILLER_101_3046
*756 FILLER_101_3058
*757 FILLER_101_3070
*758 FILLER_101_3076
*759 FILLER_101_3078
*760 FILLER_101_3090
*761 FILLER_101_3102
*762 FILLER_101_3114
*763 FILLER_101_3126
*764 FILLER_101_3132
*765 FILLER_101_3134
*766 FILLER_101_3146
*767 FILLER_101_3158
*768 FILLER_101_3170
*769 FILLER_101_3182
*770 FILLER_101_3188
*771 FILLER_101_3190
*772 FILLER_101_3202
*773 FILLER_101_3214
*774 FILLER_101_3226
*775 FILLER_101_3232
*776 FILLER_101_39
*777 FILLER_101_51
*778 FILLER_101_55
*779 FILLER_101_57
*780 FILLER_101_69
*781 FILLER_102_15
*782 FILLER_102_2296
*783 FILLER_102_2308
*784 FILLER_102_2320
*785 FILLER_102_2322
*786 FILLER_102_2334
*787 FILLER_102_2346
*788 FILLER_102_2358
*789 FILLER_102_2370
*790 FILLER_102_2376
*791 FILLER_102_2378
*792 FILLER_102_2390
*793 FILLER_102_2402
*794 FILLER_102_2414
*795 FILLER_102_2426
*796 FILLER_102_2432
*797 FILLER_102_2434
*798 FILLER_102_2446
*799 FILLER_102_2458
*800 FILLER_102_2470
*801 FILLER_102_2482
*802 FILLER_102_2488
*803 FILLER_102_2490
*804 FILLER_102_2502
*805 FILLER_102_2514
*806 FILLER_102_2526
*807 FILLER_102_2538
*808 FILLER_102_2544
*809 FILLER_102_2546
*810 FILLER_102_2558
*811 FILLER_102_2570
*812 FILLER_102_2582
*813 FILLER_102_2594
*814 FILLER_102_2600
*815 FILLER_102_2602
*816 FILLER_102_2614
*817 FILLER_102_2626
*818 FILLER_102_2638
*819 FILLER_102_2650
*820 FILLER_102_2656
*821 FILLER_102_2658
*822 FILLER_102_2670
*823 FILLER_102_2682
*824 FILLER_102_2694
*825 FILLER_102_27
*826 FILLER_102_2706
*827 FILLER_102_2712
*828 FILLER_102_2714
*829 FILLER_102_2726
*830 FILLER_102_2738
*831 FILLER_102_2750
*832 FILLER_102_2762
*833 FILLER_102_2768
*834 FILLER_102_2770
*835 FILLER_102_2782
*836 FILLER_102_2794
*837 FILLER_102_2806
*838 FILLER_102_2818
*839 FILLER_102_2824
*840 FILLER_102_2826
*841 FILLER_102_2838
*842 FILLER_102_2850
*843 FILLER_102_2862
*844 FILLER_102_2874
*845 FILLER_102_2880
*846 FILLER_102_2882
*847 FILLER_102_2894
*848 FILLER_102_29
*849 FILLER_102_2906
*850 FILLER_102_2918
*851 FILLER_102_2930
*852 FILLER_102_2936
*853 FILLER_102_2938
*854 FILLER_102_2950
*855 FILLER_102_2962
*856 FILLER_102_2974
*857 FILLER_102_2986
*858 FILLER_102_2992
*859 FILLER_102_2994
*860 FILLER_102_3
*861 FILLER_102_3006
*862 FILLER_102_3018
*863 FILLER_102_3030
*864 FILLER_102_3042
*865 FILLER_102_3048
*866 FILLER_102_3050
*867 FILLER_102_3062
*868 FILLER_102_3074
*869 FILLER_102_3086
*870 FILLER_102_3098
*871 FILLER_102_3104
*872 FILLER_102_3106
*873 FILLER_102_3118
*874 FILLER_102_3130
*875 FILLER_102_3142
*876 FILLER_102_3154
*877 FILLER_102_3160
*878 FILLER_102_3162
*879 FILLER_102_3174
*880 FILLER_102_3186
*881 FILLER_102_3198
*882 FILLER_102_3210
*883 FILLER_102_3216
*884 FILLER_102_3218
*885 FILLER_102_3230
*886 FILLER_102_41
*887 FILLER_102_53
*888 FILLER_102_65
*889 FILLER_103_15
*890 FILLER_103_2296
*891 FILLER_103_2308
*892 FILLER_103_2320
*893 FILLER_103_2332
*894 FILLER_103_2344
*895 FILLER_103_2348
*896 FILLER_103_2350
*897 FILLER_103_2362
*898 FILLER_103_2374
*899 FILLER_103_2386
*900 FILLER_103_2398
*901 FILLER_103_2404
*902 FILLER_103_2406
*903 FILLER_103_2418
*904 FILLER_103_2430
*905 FILLER_103_2442
*906 FILLER_103_2454
*907 FILLER_103_2460
*908 FILLER_103_2462
*909 FILLER_103_2474
*910 FILLER_103_2486
*911 FILLER_103_2498
*912 FILLER_103_2510
*913 FILLER_103_2516
*914 FILLER_103_2518
*915 FILLER_103_2530
*916 FILLER_103_2542
*917 FILLER_103_2554
*918 FILLER_103_2566
*919 FILLER_103_2572
*920 FILLER_103_2574
*921 FILLER_103_2586
*922 FILLER_103_2598
*923 FILLER_103_2610
*924 FILLER_103_2622
*925 FILLER_103_2628
*926 FILLER_103_2630
*927 FILLER_103_2642
*928 FILLER_103_2654
*929 FILLER_103_2666
*930 FILLER_103_2678
*931 FILLER_103_2684
*932 FILLER_103_2686
*933 FILLER_103_2698
*934 FILLER_103_27
*935 FILLER_103_2710
*936 FILLER_103_2722
*937 FILLER_103_2734
*938 FILLER_103_2740
*939 FILLER_103_2742
*940 FILLER_103_2754
*941 FILLER_103_2766
*942 FILLER_103_2778
*943 FILLER_103_2790
*944 FILLER_103_2796
*945 FILLER_103_2798
*946 FILLER_103_2810
*947 FILLER_103_2822
*948 FILLER_103_2834
*949 FILLER_103_2846
*950 FILLER_103_2852
*951 FILLER_103_2854
*952 FILLER_103_2866
*953 FILLER_103_2874
*954 FILLER_103_2880
*955 FILLER_103_2884
*956 FILLER_103_2896
*957 FILLER_103_2908
*958 FILLER_103_2910
*959 FILLER_103_2922
*960 FILLER_103_2934
*961 FILLER_103_2946
*962 FILLER_103_2958
*963 FILLER_103_2964
*964 FILLER_103_2966
*965 FILLER_103_2978
*966 FILLER_103_2990
*967 FILLER_103_3
*968 FILLER_103_3002
*969 FILLER_103_3014
*970 FILLER_103_3020
*971 FILLER_103_3022
*972 FILLER_103_3034
*973 FILLER_103_3046
*974 FILLER_103_3058
*975 FILLER_103_3070
*976 FILLER_103_3076
*977 FILLER_103_3078
*978 FILLER_103_3090
*979 FILLER_103_3102
*980 FILLER_103_3114
*981 FILLER_103_3126
*982 FILLER_103_3132
*983 FILLER_103_3134
*984 FILLER_103_3146
*985 FILLER_103_3158
*986 FILLER_103_3170
*987 FILLER_103_3182
*988 FILLER_103_3188
*989 FILLER_103_3190
*990 FILLER_103_3202
*991 FILLER_103_3214
*992 FILLER_103_3226
*993 FILLER_103_3232
*994 FILLER_103_39
*995 FILLER_103_51
*996 FILLER_103_55
*997 FILLER_103_57
*998 FILLER_103_69
*999 FILLER_104_15
*1000 FILLER_104_2296
*1001 FILLER_104_2308
*1002 FILLER_104_2320
*1003 FILLER_104_2322
*1004 FILLER_104_2334
*1005 FILLER_104_2346
*1006 FILLER_104_2358
*1007 FILLER_104_2370
*1008 FILLER_104_2376
*1009 FILLER_104_2378
*1010 FILLER_104_2390
*1011 FILLER_104_2402
*1012 FILLER_104_2414
*1013 FILLER_104_2426
*1014 FILLER_104_2432
*1015 FILLER_104_2434
*1016 FILLER_104_2446
*1017 FILLER_104_2458
*1018 FILLER_104_2470
*1019 FILLER_104_2482
*1020 FILLER_104_2488
*1021 FILLER_104_2490
*1022 FILLER_104_2502
*1023 FILLER_104_2514
*1024 FILLER_104_2526
*1025 FILLER_104_2538
*1026 FILLER_104_2544
*1027 FILLER_104_2546
*1028 FILLER_104_2558
*1029 FILLER_104_2570
*1030 FILLER_104_2582
*1031 FILLER_104_2594
*1032 FILLER_104_2600
*1033 FILLER_104_2602
*1034 FILLER_104_2614
*1035 FILLER_104_2626
*1036 FILLER_104_2638
*1037 FILLER_104_2650
*1038 FILLER_104_2656
*1039 FILLER_104_2658
*1040 FILLER_104_2670
*1041 FILLER_104_2682
*1042 FILLER_104_2694
*1043 FILLER_104_27
*1044 FILLER_104_2706
*1045 FILLER_104_2712
*1046 FILLER_104_2714
*1047 FILLER_104_2726
*1048 FILLER_104_2738
*1049 FILLER_104_2750
*1050 FILLER_104_2762
*1051 FILLER_104_2768
*1052 FILLER_104_2770
*1053 FILLER_104_2782
*1054 FILLER_104_2794
*1055 FILLER_104_2806
*1056 FILLER_104_2818
*1057 FILLER_104_2824
*1058 FILLER_104_2826
*1059 FILLER_104_2838
*1060 FILLER_104_2850
*1061 FILLER_104_2862
*1062 FILLER_104_2874
*1063 FILLER_104_2880
*1064 FILLER_104_2882
*1065 FILLER_104_2894
*1066 FILLER_104_29
*1067 FILLER_104_2906
*1068 FILLER_104_2918
*1069 FILLER_104_2930
*1070 FILLER_104_2936
*1071 FILLER_104_2938
*1072 FILLER_104_2950
*1073 FILLER_104_2962
*1074 FILLER_104_2974
*1075 FILLER_104_2986
*1076 FILLER_104_2992
*1077 FILLER_104_2994
*1078 FILLER_104_3
*1079 FILLER_104_3006
*1080 FILLER_104_3018
*1081 FILLER_104_3030
*1082 FILLER_104_3042
*1083 FILLER_104_3048
*1084 FILLER_104_3050
*1085 FILLER_104_3062
*1086 FILLER_104_3074
*1087 FILLER_104_3086
*1088 FILLER_104_3098
*1089 FILLER_104_3104
*1090 FILLER_104_3106
*1091 FILLER_104_3118
*1092 FILLER_104_3130
*1093 FILLER_104_3142
*1094 FILLER_104_3154
*1095 FILLER_104_3160
*1096 FILLER_104_3162
*1097 FILLER_104_3174
*1098 FILLER_104_3186
*1099 FILLER_104_3198
*1100 FILLER_104_3210
*1101 FILLER_104_3216
*1102 FILLER_104_3218
*1103 FILLER_104_3230
*1104 FILLER_104_41
*1105 FILLER_104_53
*1106 FILLER_104_65
*1107 FILLER_105_15
*1108 FILLER_105_2296
*1109 FILLER_105_2308
*1110 FILLER_105_2320
*1111 FILLER_105_2332
*1112 FILLER_105_2344
*1113 FILLER_105_2348
*1114 FILLER_105_2350
*1115 FILLER_105_2362
*1116 FILLER_105_2374
*1117 FILLER_105_2386
*1118 FILLER_105_2398
*1119 FILLER_105_2404
*1120 FILLER_105_2406
*1121 FILLER_105_2418
*1122 FILLER_105_2430
*1123 FILLER_105_2442
*1124 FILLER_105_2454
*1125 FILLER_105_2460
*1126 FILLER_105_2462
*1127 FILLER_105_2474
*1128 FILLER_105_2486
*1129 FILLER_105_2498
*1130 FILLER_105_2510
*1131 FILLER_105_2516
*1132 FILLER_105_2518
*1133 FILLER_105_2530
*1134 FILLER_105_2542
*1135 FILLER_105_2554
*1136 FILLER_105_2566
*1137 FILLER_105_2572
*1138 FILLER_105_2574
*1139 FILLER_105_2586
*1140 FILLER_105_2598
*1141 FILLER_105_2610
*1142 FILLER_105_2622
*1143 FILLER_105_2628
*1144 FILLER_105_2630
*1145 FILLER_105_2642
*1146 FILLER_105_2654
*1147 FILLER_105_2666
*1148 FILLER_105_2678
*1149 FILLER_105_2684
*1150 FILLER_105_2686
*1151 FILLER_105_2698
*1152 FILLER_105_27
*1153 FILLER_105_2710
*1154 FILLER_105_2722
*1155 FILLER_105_2734
*1156 FILLER_105_2740
*1157 FILLER_105_2742
*1158 FILLER_105_2754
*1159 FILLER_105_2766
*1160 FILLER_105_2778
*1161 FILLER_105_2790
*1162 FILLER_105_2796
*1163 FILLER_105_2798
*1164 FILLER_105_2810
*1165 FILLER_105_2822
*1166 FILLER_105_2834
*1167 FILLER_105_2846
*1168 FILLER_105_2852
*1169 FILLER_105_2854
*1170 FILLER_105_2866
*1171 FILLER_105_2874
*1172 FILLER_105_2879
*1173 FILLER_105_2883
*1174 FILLER_105_2889
*1175 FILLER_105_2901
*1176 FILLER_105_2910
*1177 FILLER_105_2922
*1178 FILLER_105_2934
*1179 FILLER_105_2946
*1180 FILLER_105_2958
*1181 FILLER_105_2964
*1182 FILLER_105_2966
*1183 FILLER_105_2978
*1184 FILLER_105_2990
*1185 FILLER_105_3
*1186 FILLER_105_3002
*1187 FILLER_105_3014
*1188 FILLER_105_3020
*1189 FILLER_105_3022
*1190 FILLER_105_3034
*1191 FILLER_105_3046
*1192 FILLER_105_3058
*1193 FILLER_105_3070
*1194 FILLER_105_3076
*1195 FILLER_105_3078
*1196 FILLER_105_3090
*1197 FILLER_105_3102
*1198 FILLER_105_3114
*1199 FILLER_105_3126
*1200 FILLER_105_3132
*1201 FILLER_105_3134
*1202 FILLER_105_3146
*1203 FILLER_105_3158
*1204 FILLER_105_3170
*1205 FILLER_105_3182
*1206 FILLER_105_3188
*1207 FILLER_105_3190
*1208 FILLER_105_3202
*1209 FILLER_105_3214
*1210 FILLER_105_3226
*1211 FILLER_105_3232
*1212 FILLER_105_39
*1213 FILLER_105_51
*1214 FILLER_105_55
*1215 FILLER_105_57
*1216 FILLER_105_69
*1217 FILLER_106_15
*1218 FILLER_106_2296
*1219 FILLER_106_2308
*1220 FILLER_106_2320
*1221 FILLER_106_2322
*1222 FILLER_106_2334
*1223 FILLER_106_2346
*1224 FILLER_106_2358
*1225 FILLER_106_2370
*1226 FILLER_106_2376
*1227 FILLER_106_2378
*1228 FILLER_106_2390
*1229 FILLER_106_2402
*1230 FILLER_106_2414
*1231 FILLER_106_2426
*1232 FILLER_106_2432
*1233 FILLER_106_2434
*1234 FILLER_106_2446
*1235 FILLER_106_2458
*1236 FILLER_106_2470
*1237 FILLER_106_2482
*1238 FILLER_106_2488
*1239 FILLER_106_2490
*1240 FILLER_106_2502
*1241 FILLER_106_2514
*1242 FILLER_106_2526
*1243 FILLER_106_2538
*1244 FILLER_106_2544
*1245 FILLER_106_2546
*1246 FILLER_106_2558
*1247 FILLER_106_2570
*1248 FILLER_106_2582
*1249 FILLER_106_2594
*1250 FILLER_106_2600
*1251 FILLER_106_2602
*1252 FILLER_106_2614
*1253 FILLER_106_2626
*1254 FILLER_106_2638
*1255 FILLER_106_2650
*1256 FILLER_106_2656
*1257 FILLER_106_2658
*1258 FILLER_106_2670
*1259 FILLER_106_2682
*1260 FILLER_106_2694
*1261 FILLER_106_27
*1262 FILLER_106_2706
*1263 FILLER_106_2712
*1264 FILLER_106_2714
*1265 FILLER_106_2726
*1266 FILLER_106_2738
*1267 FILLER_106_2750
*1268 FILLER_106_2762
*1269 FILLER_106_2768
*1270 FILLER_106_2770
*1271 FILLER_106_2782
*1272 FILLER_106_2794
*1273 FILLER_106_2806
*1274 FILLER_106_2818
*1275 FILLER_106_2824
*1276 FILLER_106_2826
*1277 FILLER_106_2838
*1278 FILLER_106_2850
*1279 FILLER_106_2862
*1280 FILLER_106_2868
*1281 FILLER_106_2874
*1282 FILLER_106_2879
*1283 FILLER_106_2882
*1284 FILLER_106_2894
*1285 FILLER_106_29
*1286 FILLER_106_2906
*1287 FILLER_106_2918
*1288 FILLER_106_2930
*1289 FILLER_106_2936
*1290 FILLER_106_2938
*1291 FILLER_106_2950
*1292 FILLER_106_2962
*1293 FILLER_106_2974
*1294 FILLER_106_2986
*1295 FILLER_106_2992
*1296 FILLER_106_2994
*1297 FILLER_106_3
*1298 FILLER_106_3006
*1299 FILLER_106_3018
*1300 FILLER_106_3030
*1301 FILLER_106_3042
*1302 FILLER_106_3048
*1303 FILLER_106_3050
*1304 FILLER_106_3062
*1305 FILLER_106_3074
*1306 FILLER_106_3086
*1307 FILLER_106_3098
*1308 FILLER_106_3104
*1309 FILLER_106_3106
*1310 FILLER_106_3118
*1311 FILLER_106_3130
*1312 FILLER_106_3142
*1313 FILLER_106_3154
*1314 FILLER_106_3160
*1315 FILLER_106_3162
*1316 FILLER_106_3174
*1317 FILLER_106_3186
*1318 FILLER_106_3198
*1319 FILLER_106_3210
*1320 FILLER_106_3216
*1321 FILLER_106_3218
*1322 FILLER_106_3230
*1323 FILLER_106_41
*1324 FILLER_106_53
*1325 FILLER_106_65
*1326 FILLER_107_15
*1327 FILLER_107_2296
*1328 FILLER_107_2308
*1329 FILLER_107_2320
*1330 FILLER_107_2332
*1331 FILLER_107_2344
*1332 FILLER_107_2348
*1333 FILLER_107_2350
*1334 FILLER_107_2362
*1335 FILLER_107_2374
*1336 FILLER_107_2386
*1337 FILLER_107_2398
*1338 FILLER_107_2404
*1339 FILLER_107_2406
*1340 FILLER_107_2418
*1341 FILLER_107_2430
*1342 FILLER_107_2442
*1343 FILLER_107_2454
*1344 FILLER_107_2460
*1345 FILLER_107_2462
*1346 FILLER_107_2474
*1347 FILLER_107_2486
*1348 FILLER_107_2498
*1349 FILLER_107_2510
*1350 FILLER_107_2516
*1351 FILLER_107_2518
*1352 FILLER_107_2530
*1353 FILLER_107_2542
*1354 FILLER_107_2554
*1355 FILLER_107_2566
*1356 FILLER_107_2572
*1357 FILLER_107_2574
*1358 FILLER_107_2586
*1359 FILLER_107_2598
*1360 FILLER_107_2610
*1361 FILLER_107_2622
*1362 FILLER_107_2628
*1363 FILLER_107_2630
*1364 FILLER_107_2642
*1365 FILLER_107_2654
*1366 FILLER_107_2666
*1367 FILLER_107_2678
*1368 FILLER_107_2684
*1369 FILLER_107_2686
*1370 FILLER_107_2698
*1371 FILLER_107_27
*1372 FILLER_107_2710
*1373 FILLER_107_2722
*1374 FILLER_107_2734
*1375 FILLER_107_2740
*1376 FILLER_107_2742
*1377 FILLER_107_2754
*1378 FILLER_107_2766
*1379 FILLER_107_2778
*1380 FILLER_107_2790
*1381 FILLER_107_2796
*1382 FILLER_107_2798
*1383 FILLER_107_2810
*1384 FILLER_107_2822
*1385 FILLER_107_2834
*1386 FILLER_107_2846
*1387 FILLER_107_2852
*1388 FILLER_107_2854
*1389 FILLER_107_2866
*1390 FILLER_107_2874
*1391 FILLER_107_2881
*1392 FILLER_107_2893
*1393 FILLER_107_2905
*1394 FILLER_107_2910
*1395 FILLER_107_2922
*1396 FILLER_107_2934
*1397 FILLER_107_2946
*1398 FILLER_107_2958
*1399 FILLER_107_2964
*1400 FILLER_107_2966
*1401 FILLER_107_2978
*1402 FILLER_107_2990
*1403 FILLER_107_3
*1404 FILLER_107_3002
*1405 FILLER_107_3014
*1406 FILLER_107_3020
*1407 FILLER_107_3022
*1408 FILLER_107_3034
*1409 FILLER_107_3046
*1410 FILLER_107_3058
*1411 FILLER_107_3070
*1412 FILLER_107_3076
*1413 FILLER_107_3078
*1414 FILLER_107_3090
*1415 FILLER_107_3102
*1416 FILLER_107_3114
*1417 FILLER_107_3126
*1418 FILLER_107_3132
*1419 FILLER_107_3134
*1420 FILLER_107_3146
*1421 FILLER_107_3158
*1422 FILLER_107_3170
*1423 FILLER_107_3182
*1424 FILLER_107_3188
*1425 FILLER_107_3190
*1426 FILLER_107_3202
*1427 FILLER_107_3214
*1428 FILLER_107_3226
*1429 FILLER_107_3232
*1430 FILLER_107_39
*1431 FILLER_107_51
*1432 FILLER_107_55
*1433 FILLER_107_57
*1434 FILLER_107_69
*1435 FILLER_108_15
*1436 FILLER_108_2296
*1437 FILLER_108_2308
*1438 FILLER_108_2320
*1439 FILLER_108_2322
*1440 FILLER_108_2334
*1441 FILLER_108_2346
*1442 FILLER_108_2358
*1443 FILLER_108_2370
*1444 FILLER_108_2376
*1445 FILLER_108_2378
*1446 FILLER_108_2390
*1447 FILLER_108_2402
*1448 FILLER_108_2414
*1449 FILLER_108_2426
*1450 FILLER_108_2432
*1451 FILLER_108_2434
*1452 FILLER_108_2446
*1453 FILLER_108_2458
*1454 FILLER_108_2470
*1455 FILLER_108_2482
*1456 FILLER_108_2488
*1457 FILLER_108_2490
*1458 FILLER_108_2502
*1459 FILLER_108_2514
*1460 FILLER_108_2526
*1461 FILLER_108_2538
*1462 FILLER_108_2544
*1463 FILLER_108_2546
*1464 FILLER_108_2558
*1465 FILLER_108_2570
*1466 FILLER_108_2582
*1467 FILLER_108_2594
*1468 FILLER_108_2600
*1469 FILLER_108_2602
*1470 FILLER_108_2614
*1471 FILLER_108_2626
*1472 FILLER_108_2638
*1473 FILLER_108_2650
*1474 FILLER_108_2656
*1475 FILLER_108_2658
*1476 FILLER_108_2670
*1477 FILLER_108_2682
*1478 FILLER_108_2694
*1479 FILLER_108_27
*1480 FILLER_108_2706
*1481 FILLER_108_2712
*1482 FILLER_108_2714
*1483 FILLER_108_2726
*1484 FILLER_108_2738
*1485 FILLER_108_2750
*1486 FILLER_108_2762
*1487 FILLER_108_2768
*1488 FILLER_108_2770
*1489 FILLER_108_2782
*1490 FILLER_108_2794
*1491 FILLER_108_2806
*1492 FILLER_108_2818
*1493 FILLER_108_2824
*1494 FILLER_108_2826
*1495 FILLER_108_2838
*1496 FILLER_108_2850
*1497 FILLER_108_2862
*1498 FILLER_108_2874
*1499 FILLER_108_2880
*1500 FILLER_108_2882
*1501 FILLER_108_2894
*1502 FILLER_108_29
*1503 FILLER_108_2906
*1504 FILLER_108_2918
*1505 FILLER_108_2930
*1506 FILLER_108_2936
*1507 FILLER_108_2938
*1508 FILLER_108_2950
*1509 FILLER_108_2962
*1510 FILLER_108_2974
*1511 FILLER_108_2986