*SPEF "ieee 1481-1999"
*DESIGN "bmu"
*DATE "02:22:20 Saturday January 24, 2026"
*VENDOR "The OpenROAD Project"
*PROGRAM "OpenROAD"
*VERSION "edf00dff99f6c40d67a30c0e22a8191c5d2ed9d6"
*DESIGN_FLOW "NAME_SCOPE LOCAL" "PIN_CAP NONE"
*DIVIDER /
*DELIMITER :
*BUS_DELIMITER []
*T_UNIT 1 NS
*C_UNIT 1 PF
*R_UNIT 1 OHM
*L_UNIT 1 HENRY

*NAME_MAP
*1 bm_s0_s0_o[0]
*2 bm_s0_s0_o[1]
*3 bm_s0_s2_o[0]
*4 bm_s0_s2_o[1]
*5 bm_s1_s0_o[0]
*6 bm_s1_s0_o[1]
*7 bm_s1_s2_o[0]
*8 bm_s1_s2_o[1]
*9 bm_s2_s1_o[0]
*10 bm_s2_s1_o[1]
*11 bm_s2_s3_o[0]
*12 bm_s2_s3_o[1]
*13 bm_s3_s1_o[0]
*14 bm_s3_s1_o[1]
*15 bm_s3_s3_o[0]
*16 bm_s3_s3_o[1]
*17 piso_data_i[0]
*18 piso_data_i[1]
*21 net1
*22 net10
*23 net11
*24 net12
*25 net13
*26 net14
*27 net15
*28 net16
*29 net17
*30 net18
*31 net2
*32 net3
*33 net4
*34 net5
*35 net6
*36 net7
*37 net8
*38 net9
*39 ANTENNA_1
*40 FILLER_0_109
*41 FILLER_0_113
*42 FILLER_0_125
*43 FILLER_0_137
*44 FILLER_0_141
*45 FILLER_0_15
*46 FILLER_0_153
*47 FILLER_0_165
*48 FILLER_0_169
*49 FILLER_0_181
*50 FILLER_0_193
*51 FILLER_0_197
*52 FILLER_0_209
*53 FILLER_0_221
*54 FILLER_0_225
*55 FILLER_0_237
*56 FILLER_0_249
*57 FILLER_0_253
*58 FILLER_0_265
*59 FILLER_0_27
*60 FILLER_0_277
*61 FILLER_0_281
*62 FILLER_0_29
*63 FILLER_0_293
*64 FILLER_0_3
*65 FILLER_0_41
*66 FILLER_0_53
*67 FILLER_0_57
*68 FILLER_0_69
*69 FILLER_0_81
*70 FILLER_0_85
*71 FILLER_0_97
*72 FILLER_10_109
*73 FILLER_10_121
*74 FILLER_10_133
*75 FILLER_10_139
*76 FILLER_10_141
*77 FILLER_10_153
*78 FILLER_10_165
*79 FILLER_10_177
*80 FILLER_10_189
*81 FILLER_10_195
*82 FILLER_10_197
*83 FILLER_10_209
*84 FILLER_10_21
*85 FILLER_10_221
*86 FILLER_10_233
*87 FILLER_10_245
*88 FILLER_10_251
*89 FILLER_10_253
*90 FILLER_10_265
*91 FILLER_10_27
*92 FILLER_10_277
*93 FILLER_10_289
*94 FILLER_10_29
*95 FILLER_10_41
*96 FILLER_10_53
*97 FILLER_10_65
*98 FILLER_10_77
*99 FILLER_10_83
*100 FILLER_10_85
*101 FILLER_10_9
*102 FILLER_10_97
*103 FILLER_11_105
*104 FILLER_11_111
*105 FILLER_11_113
*106 FILLER_11_125
*107 FILLER_11_137
*108 FILLER_11_149
*109 FILLER_11_15
*110 FILLER_11_161
*111 FILLER_11_167
*112 FILLER_11_169
*113 FILLER_11_181
*114 FILLER_11_193
*115 FILLER_11_205
*116 FILLER_11_217
*117 FILLER_11_223
*118 FILLER_11_225
*119 FILLER_11_237
*120 FILLER_11_249
*121 FILLER_11_261
*122 FILLER_11_27
*123 FILLER_11_273
*124 FILLER_11_279
*125 FILLER_11_281
*126 FILLER_11_293
*127 FILLER_11_3
*128 FILLER_11_39
*129 FILLER_11_51
*130 FILLER_11_55
*131 FILLER_11_57
*132 FILLER_11_69
*133 FILLER_11_81
*134 FILLER_11_93
*135 FILLER_12_109
*136 FILLER_12_121
*137 FILLER_12_133
*138 FILLER_12_139
*139 FILLER_12_141
*140 FILLER_12_15
*141 FILLER_12_153
*142 FILLER_12_165
*143 FILLER_12_177
*144 FILLER_12_189
*145 FILLER_12_195
*146 FILLER_12_197
*147 FILLER_12_209
*148 FILLER_12_221
*149 FILLER_12_233
*150 FILLER_12_245
*151 FILLER_12_251
*152 FILLER_12_253
*153 FILLER_12_265
*154 FILLER_12_27
*155 FILLER_12_277
*156 FILLER_12_285
*157 FILLER_12_29
*158 FILLER_12_290
*159 FILLER_12_298
*160 FILLER_12_3
*161 FILLER_12_41
*162 FILLER_12_53
*163 FILLER_12_65
*164 FILLER_12_77
*165 FILLER_12_83
*166 FILLER_12_85
*167 FILLER_12_97
*168 FILLER_13_105
*169 FILLER_13_111
*170 FILLER_13_113
*171 FILLER_13_125
*172 FILLER_13_137
*173 FILLER_13_149
*174 FILLER_13_15
*175 FILLER_13_161
*176 FILLER_13_167
*177 FILLER_13_169
*178 FILLER_13_181
*179 FILLER_13_193
*180 FILLER_13_205
*181 FILLER_13_217
*182 FILLER_13_223
*183 FILLER_13_225
*184 FILLER_13_237
*185 FILLER_13_249
*186 FILLER_13_261
*187 FILLER_13_27
*188 FILLER_13_273
*189 FILLER_13_279
*190 FILLER_13_281
*191 FILLER_13_290
*192 FILLER_13_3
*193 FILLER_13_39
*194 FILLER_13_51
*195 FILLER_13_55
*196 FILLER_13_57
*197 FILLER_13_69
*198 FILLER_13_81
*199 FILLER_13_93
*200 FILLER_14_109
*201 FILLER_14_121
*202 FILLER_14_133
*203 FILLER_14_139
*204 FILLER_14_141
*205 FILLER_14_15
*206 FILLER_14_153
*207 FILLER_14_165
*208 FILLER_14_177
*209 FILLER_14_189
*210 FILLER_14_195
*211 FILLER_14_197
*212 FILLER_14_209
*213 FILLER_14_221
*214 FILLER_14_233
*215 FILLER_14_245
*216 FILLER_14_251
*217 FILLER_14_253
*218 FILLER_14_265
*219 FILLER_14_27
*220 FILLER_14_277
*221 FILLER_14_289
*222 FILLER_14_29
*223 FILLER_14_297
*224 FILLER_14_3
*225 FILLER_14_41
*226 FILLER_14_53
*227 FILLER_14_65
*228 FILLER_14_77
*229 FILLER_14_83
*230 FILLER_14_85
*231 FILLER_14_97
*232 FILLER_15_105
*233 FILLER_15_111
*234 FILLER_15_113
*235 FILLER_15_125
*236 FILLER_15_137
*237 FILLER_15_149
*238 FILLER_15_15
*239 FILLER_15_161
*240 FILLER_15_167
*241 FILLER_15_169
*242 FILLER_15_181
*243 FILLER_15_193
*244 FILLER_15_205
*245 FILLER_15_217
*246 FILLER_15_223
*247 FILLER_15_225
*248 FILLER_15_237
*249 FILLER_15_249
*250 FILLER_15_261
*251 FILLER_15_27
*252 FILLER_15_273
*253 FILLER_15_294
*254 FILLER_15_298
*255 FILLER_15_3
*256 FILLER_15_39
*257 FILLER_15_51
*258 FILLER_15_55
*259 FILLER_15_57
*260 FILLER_15_69
*261 FILLER_15_81
*262 FILLER_15_93
*263 FILLER_16_109
*264 FILLER_16_121
*265 FILLER_16_133
*266 FILLER_16_139
*267 FILLER_16_141
*268 FILLER_16_15
*269 FILLER_16_153
*270 FILLER_16_165
*271 FILLER_16_177
*272 FILLER_16_189
*273 FILLER_16_195
*274 FILLER_16_197
*275 FILLER_16_209
*276 FILLER_16_221
*277 FILLER_16_233
*278 FILLER_16_245
*279 FILLER_16_251
*280 FILLER_16_253
*281 FILLER_16_265
*282 FILLER_16_27
*283 FILLER_16_277
*284 FILLER_16_289
*285 FILLER_16_29
*286 FILLER_16_3
*287 FILLER_16_41
*288 FILLER_16_53
*289 FILLER_16_65
*290 FILLER_16_77
*291 FILLER_16_83
*292 FILLER_16_85
*293 FILLER_16_97
*294 FILLER_17_105
*295 FILLER_17_111
*296 FILLER_17_113
*297 FILLER_17_125
*298 FILLER_17_137
*299 FILLER_17_149
*300 FILLER_17_15
*301 FILLER_17_161
*302 FILLER_17_167
*303 FILLER_17_169
*304 FILLER_17_181
*305 FILLER_17_193
*306 FILLER_17_205
*307 FILLER_17_217
*308 FILLER_17_223
*309 FILLER_17_225
*310 FILLER_17_237
*311 FILLER_17_249
*312 FILLER_17_261
*313 FILLER_17_27
*314 FILLER_17_273
*315 FILLER_17_279
*316 FILLER_17_281
*317 FILLER_17_290
*318 FILLER_17_298
*319 FILLER_17_3
*320 FILLER_17_39
*321 FILLER_17_51
*322 FILLER_17_55
*323 FILLER_17_57
*324 FILLER_17_69
*325 FILLER_17_81
*326 FILLER_17_93
*327 FILLER_18_109
*328 FILLER_18_121
*329 FILLER_18_133
*330 FILLER_18_139
*331 FILLER_18_141
*332 FILLER_18_15
*333 FILLER_18_153
*334 FILLER_18_165
*335 FILLER_18_177
*336 FILLER_18_189
*337 FILLER_18_195
*338 FILLER_18_197
*339 FILLER_18_209
*340 FILLER_18_221
*341 FILLER_18_233
*342 FILLER_18_245
*343 FILLER_18_251
*344 FILLER_18_253
*345 FILLER_18_265
*346 FILLER_18_27
*347 FILLER_18_277
*348 FILLER_18_289
*349 FILLER_18_29
*350 FILLER_18_297
*351 FILLER_18_3
*352 FILLER_18_41
*353 FILLER_18_53
*354 FILLER_18_65
*355 FILLER_18_77
*356 FILLER_18_83
*357 FILLER_18_85
*358 FILLER_18_97
*359 FILLER_19_105
*360 FILLER_19_111
*361 FILLER_19_113
*362 FILLER_19_125
*363 FILLER_19_137
*364 FILLER_19_149
*365 FILLER_19_15
*366 FILLER_19_161
*367 FILLER_19_167
*368 FILLER_19_169
*369 FILLER_19_181
*370 FILLER_19_193
*371 FILLER_19_205
*372 FILLER_19_217
*373 FILLER_19_223
*374 FILLER_19_225
*375 FILLER_19_237
*376 FILLER_19_249
*377 FILLER_19_261
*378 FILLER_19_27
*379 FILLER_19_273
*380 FILLER_19_279
*381 FILLER_19_286
*382 FILLER_19_292
*383 FILLER_19_3
*384 FILLER_19_39
*385 FILLER_19_51
*386 FILLER_19_55
*387 FILLER_19_57
*388 FILLER_19_69
*389 FILLER_19_81
*390 FILLER_19_93
*391 FILLER_1_105
*392 FILLER_1_111
*393 FILLER_1_113
*394 FILLER_1_125
*395 FILLER_1_137
*396 FILLER_1_149
*397 FILLER_1_15
*398 FILLER_1_161
*399 FILLER_1_167
*400 FILLER_1_169
*401 FILLER_1_181
*402 FILLER_1_193
*403 FILLER_1_205
*404 FILLER_1_217
*405 FILLER_1_223
*406 FILLER_1_225
*407 FILLER_1_237
*408 FILLER_1_249
*409 FILLER_1_261
*410 FILLER_1_27
*411 FILLER_1_273
*412 FILLER_1_279
*413 FILLER_1_281
*414 FILLER_1_3
*415 FILLER_1_39
*416 FILLER_1_51
*417 FILLER_1_55
*418 FILLER_1_57
*419 FILLER_1_69
*420 FILLER_1_81
*421 FILLER_1_93
*422 FILLER_20_109
*423 FILLER_20_121
*424 FILLER_20_133
*425 FILLER_20_139
*426 FILLER_20_141
*427 FILLER_20_15
*428 FILLER_20_153
*429 FILLER_20_165
*430 FILLER_20_177
*431 FILLER_20_189
*432 FILLER_20_195
*433 FILLER_20_197
*434 FILLER_20_209
*435 FILLER_20_221
*436 FILLER_20_233
*437 FILLER_20_245
*438 FILLER_20_251
*439 FILLER_20_253
*440 FILLER_20_265
*441 FILLER_20_27
*442 FILLER_20_277
*443 FILLER_20_285
*444 FILLER_20_29
*445 FILLER_20_290
*446 FILLER_20_298
*447 FILLER_20_3
*448 FILLER_20_41
*449 FILLER_20_53
*450 FILLER_20_65
*451 FILLER_20_77
*452 FILLER_20_83
*453 FILLER_20_85
*454 FILLER_20_97
*455 FILLER_21_105
*456 FILLER_21_111
*457 FILLER_21_113
*458 FILLER_21_125
*459 FILLER_21_137
*460 FILLER_21_149
*461 FILLER_21_15
*462 FILLER_21_161
*463 FILLER_21_167
*464 FILLER_21_169
*465 FILLER_21_181
*466 FILLER_21_193
*467 FILLER_21_205
*468 FILLER_21_217
*469 FILLER_21_223
*470 FILLER_21_225
*471 FILLER_21_237
*472 FILLER_21_249
*473 FILLER_21_261
*474 FILLER_21_27
*475 FILLER_21_273
*476 FILLER_21_279
*477 FILLER_21_281
*478 FILLER_21_293
*479 FILLER_21_3
*480 FILLER_21_39
*481 FILLER_21_51
*482 FILLER_21_55
*483 FILLER_21_57
*484 FILLER_21_69
*485 FILLER_21_81
*486 FILLER_21_93
*487 FILLER_22_109
*488 FILLER_22_121
*489 FILLER_22_133
*490 FILLER_22_139
*491 FILLER_22_141
*492 FILLER_22_15
*493 FILLER_22_153
*494 FILLER_22_165
*495 FILLER_22_177
*496 FILLER_22_189
*497 FILLER_22_195
*498 FILLER_22_197
*499 FILLER_22_209
*500 FILLER_22_221
*501 FILLER_22_233
*502 FILLER_22_245
*503 FILLER_22_251
*504 FILLER_22_253
*505 FILLER_22_265
*506 FILLER_22_27
*507 FILLER_22_277
*508 FILLER_22_289
*509 FILLER_22_29
*510 FILLER_22_3
*511 FILLER_22_41
*512 FILLER_22_53
*513 FILLER_22_65
*514 FILLER_22_77
*515 FILLER_22_83
*516 FILLER_22_85
*517 FILLER_22_97
*518 FILLER_23_105
*519 FILLER_23_111
*520 FILLER_23_113
*521 FILLER_23_125
*522 FILLER_23_137
*523 FILLER_23_149
*524 FILLER_23_15
*525 FILLER_23_161
*526 FILLER_23_167
*527 FILLER_23_169
*528 FILLER_23_181
*529 FILLER_23_193
*530 FILLER_23_205
*531 FILLER_23_217
*532 FILLER_23_223
*533 FILLER_23_225
*534 FILLER_23_237
*535 FILLER_23_249
*536 FILLER_23_261
*537 FILLER_23_27
*538 FILLER_23_273
*539 FILLER_23_279
*540 FILLER_23_281
*541 FILLER_23_293
*542 FILLER_23_3
*543 FILLER_23_39
*544 FILLER_23_51
*545 FILLER_23_55
*546 FILLER_23_57
*547 FILLER_23_69
*548 FILLER_23_81
*549 FILLER_23_93
*550 FILLER_24_109
*551 FILLER_24_121
*552 FILLER_24_133
*553 FILLER_24_139
*554 FILLER_24_141
*555 FILLER_24_15
*556 FILLER_24_153
*557 FILLER_24_165
*558 FILLER_24_177
*559 FILLER_24_189
*560 FILLER_24_195
*561 FILLER_24_197
*562 FILLER_24_209
*563 FILLER_24_221
*564 FILLER_24_233
*565 FILLER_24_245
*566 FILLER_24_251
*567 FILLER_24_253
*568 FILLER_24_265
*569 FILLER_24_27
*570 FILLER_24_277
*571 FILLER_24_289
*572 FILLER_24_29
*573 FILLER_24_3
*574 FILLER_24_41
*575 FILLER_24_53
*576 FILLER_24_65
*577 FILLER_24_77
*578 FILLER_24_83
*579 FILLER_24_85
*580 FILLER_24_97
*581 FILLER_25_105
*582 FILLER_25_111
*583 FILLER_25_113
*584 FILLER_25_125
*585 FILLER_25_137
*586 FILLER_25_149
*587 FILLER_25_15
*588 FILLER_25_161
*589 FILLER_25_167
*590 FILLER_25_169
*591 FILLER_25_181
*592 FILLER_25_193
*593 FILLER_25_205
*594 FILLER_25_217
*595 FILLER_25_223
*596 FILLER_25_225
*597 FILLER_25_237
*598 FILLER_25_249
*599 FILLER_25_261
*600 FILLER_25_27
*601 FILLER_25_273
*602 FILLER_25_279
*603 FILLER_25_294
*604 FILLER_25_298
*605 FILLER_25_3
*606 FILLER_25_39
*607 FILLER_25_51
*608 FILLER_25_55
*609 FILLER_25_57
*610 FILLER_25_69
*611 FILLER_25_81
*612 FILLER_25_93
*613 FILLER_26_109
*614 FILLER_26_121
*615 FILLER_26_133
*616 FILLER_26_139
*617 FILLER_26_141
*618 FILLER_26_15
*619 FILLER_26_153
*620 FILLER_26_165
*621 FILLER_26_177
*622 FILLER_26_189
*623 FILLER_26_195
*624 FILLER_26_197
*625 FILLER_26_209
*626 FILLER_26_221
*627 FILLER_26_233
*628 FILLER_26_245
*629 FILLER_26_251
*630 FILLER_26_253
*631 FILLER_26_265
*632 FILLER_26_27
*633 FILLER_26_277
*634 FILLER_26_286
*635 FILLER_26_29
*636 FILLER_26_298
*637 FILLER_26_3
*638 FILLER_26_41
*639 FILLER_26_53
*640 FILLER_26_65
*641 FILLER_26_77
*642 FILLER_26_83
*643 FILLER_26_85
*644 FILLER_26_97
*645 FILLER_27_105
*646 FILLER_27_111
*647 FILLER_27_113
*648 FILLER_27_125
*649 FILLER_27_137
*650 FILLER_27_149
*651 FILLER_27_15
*652 FILLER_27_161
*653 FILLER_27_167
*654 FILLER_27_169
*655 FILLER_27_181
*656 FILLER_27_193
*657 FILLER_27_205
*658 FILLER_27_217
*659 FILLER_27_223
*660 FILLER_27_225
*661 FILLER_27_237
*662 FILLER_27_249
*663 FILLER_27_261
*664 FILLER_27_27
*665 FILLER_27_273
*666 FILLER_27_279
*667 FILLER_27_289
*668 FILLER_27_297
*669 FILLER_27_3
*670 FILLER_27_39
*671 FILLER_27_51
*672 FILLER_27_55
*673 FILLER_27_57
*674 FILLER_27_69
*675 FILLER_27_81
*676 FILLER_27_93
*677 FILLER_28_109
*678 FILLER_28_121
*679 FILLER_28_133
*680 FILLER_28_139
*681 FILLER_28_141
*682 FILLER_28_15
*683 FILLER_28_153
*684 FILLER_28_165
*685 FILLER_28_177
*686 FILLER_28_189
*687 FILLER_28_195
*688 FILLER_28_197
*689 FILLER_28_209
*690 FILLER_28_221
*691 FILLER_28_233
*692 FILLER_28_245
*693 FILLER_28_251
*694 FILLER_28_253
*695 FILLER_28_265
*696 FILLER_28_27
*697 FILLER_28_277
*698 FILLER_28_289
*699 FILLER_28_29
*700 FILLER_28_3
*701 FILLER_28_41
*702 FILLER_28_53
*703 FILLER_28_65
*704 FILLER_28_77
*705 FILLER_28_83
*706 FILLER_28_85
*707 FILLER_28_97
*708 FILLER_29_105
*709 FILLER_29_111
*710 FILLER_29_113
*711 FILLER_29_125
*712 FILLER_29_137
*713 FILLER_29_149
*714 FILLER_29_15
*715 FILLER_29_161
*716 FILLER_29_167
*717 FILLER_29_169
*718 FILLER_29_181
*719 FILLER_29_193
*720 FILLER_29_205
*721 FILLER_29_217
*722 FILLER_29_223
*723 FILLER_29_225
*724 FILLER_29_237
*725 FILLER_29_249
*726 FILLER_29_261
*727 FILLER_29_27
*728 FILLER_29_273
*729 FILLER_29_279
*730 FILLER_29_281
*731 FILLER_29_290
*732 FILLER_29_298
*733 FILLER_29_3
*734 FILLER_29_39
*735 FILLER_29_51
*736 FILLER_29_55
*737 FILLER_29_57
*738 FILLER_29_69
*739 FILLER_29_81
*740 FILLER_29_93
*741 FILLER_2_109
*742 FILLER_2_121
*743 FILLER_2_133
*744 FILLER_2_139
*745 FILLER_2_141
*746 FILLER_2_15
*747 FILLER_2_153
*748 FILLER_2_165
*749 FILLER_2_177
*750 FILLER_2_189
*751 FILLER_2_195
*752 FILLER_2_197
*753 FILLER_2_209
*754 FILLER_2_221
*755 FILLER_2_233
*756 FILLER_2_245
*757 FILLER_2_251
*758 FILLER_2_253
*759 FILLER_2_265
*760 FILLER_2_27
*761 FILLER_2_277
*762 FILLER_2_289
*763 FILLER_2_29
*764 FILLER_2_297
*765 FILLER_2_3
*766 FILLER_2_41
*767 FILLER_2_53
*768 FILLER_2_65
*769 FILLER_2_77
*770 FILLER_2_83
*771 FILLER_2_85
*772 FILLER_2_97
*773 FILLER_30_109
*774 FILLER_30_121
*775 FILLER_30_133
*776 FILLER_30_139
*777 FILLER_30_141
*778 FILLER_30_15
*779 FILLER_30_153
*780 FILLER_30_165
*781 FILLER_30_177
*782 FILLER_30_189
*783 FILLER_30_195
*784 FILLER_30_197
*785 FILLER_30_209
*786 FILLER_30_221
*787 FILLER_30_233
*788 FILLER_30_245
*789 FILLER_30_251
*790 FILLER_30_253
*791 FILLER_30_265
*792 FILLER_30_27
*793 FILLER_30_277
*794 FILLER_30_285
*795 FILLER_30_29
*796 FILLER_30_290
*797 FILLER_30_298
*798 FILLER_30_3
*799 FILLER_30_41
*800 FILLER_30_53
*801 FILLER_30_65
*802 FILLER_30_77
*803 FILLER_30_83
*804 FILLER_30_85
*805 FILLER_30_97
*806 FILLER_31_105
*807 FILLER_31_111
*808 FILLER_31_113
*809 FILLER_31_125
*810 FILLER_31_137
*811 FILLER_31_149
*812 FILLER_31_15
*813 FILLER_31_161
*814 FILLER_31_167
*815 FILLER_31_169
*816 FILLER_31_181
*817 FILLER_31_193
*818 FILLER_31_205
*819 FILLER_31_217
*820 FILLER_31_223
*821 FILLER_31_225
*822 FILLER_31_237
*823 FILLER_31_249
*824 FILLER_31_261
*825 FILLER_31_27
*826 FILLER_31_273
*827 FILLER_31_279
*828 FILLER_31_281
*829 FILLER_31_3
*830 FILLER_31_39
*831 FILLER_31_51
*832 FILLER_31_55
*833 FILLER_31_57
*834 FILLER_31_69
*835 FILLER_31_81
*836 FILLER_31_93
*837 FILLER_32_109
*838 FILLER_32_121
*839 FILLER_32_133
*840 FILLER_32_139
*841 FILLER_32_141
*842 FILLER_32_15
*843 FILLER_32_153
*844 FILLER_32_165
*845 FILLER_32_177
*846 FILLER_32_189
*847 FILLER_32_195
*848 FILLER_32_197
*849 FILLER_32_209
*850 FILLER_32_221
*851 FILLER_32_233
*852 FILLER_32_245
*853 FILLER_32_251
*854 FILLER_32_253
*855 FILLER_32_265
*856 FILLER_32_27
*857 FILLER_32_277
*858 FILLER_32_289
*859 FILLER_32_29
*860 FILLER_32_297
*861 FILLER_32_3
*862 FILLER_32_41
*863 FILLER_32_53
*864 FILLER_32_65
*865 FILLER_32_77
*866 FILLER_32_83
*867 FILLER_32_85
*868 FILLER_32_97
*869 FILLER_33_105
*870 FILLER_33_111
*871 FILLER_33_113
*872 FILLER_33_125
*873 FILLER_33_137
*874 FILLER_33_149
*875 FILLER_33_15
*876 FILLER_33_161
*877 FILLER_33_167
*878 FILLER_33_169
*879 FILLER_33_181
*880 FILLER_33_193
*881 FILLER_33_205
*882 FILLER_33_217
*883 FILLER_33_223
*884 FILLER_33_225
*885 FILLER_33_237
*886 FILLER_33_249
*887 FILLER_33_261
*888 FILLER_33_27
*889 FILLER_33_273
*890 FILLER_33_279
*891 FILLER_33_281
*892 FILLER_33_293
*893 FILLER_33_3
*894 FILLER_33_39
*895 FILLER_33_51
*896 FILLER_33_55
*897 FILLER_33_57
*898 FILLER_33_69
*899 FILLER_33_81
*900 FILLER_33_93
*901 FILLER_34_109
*902 FILLER_34_121
*903 FILLER_34_133
*904 FILLER_34_139
*905 FILLER_34_141
*906 FILLER_34_15
*907 FILLER_34_153
*908 FILLER_34_165
*909 FILLER_34_177
*910 FILLER_34_189
*911 FILLER_34_195
*912 FILLER_34_197
*913 FILLER_34_209
*914 FILLER_34_221
*915 FILLER_34_233
*916 FILLER_34_245
*917 FILLER_34_251
*918 FILLER_34_253
*919 FILLER_34_265
*920 FILLER_34_27
*921 FILLER_34_277
*922 FILLER_34_289
*923 FILLER_34_29
*924 FILLER_34_3
*925 FILLER_34_41
*926 FILLER_34_53
*927 FILLER_34_65
*928 FILLER_34_77
*929 FILLER_34_83
*930 FILLER_34_85
*931 FILLER_34_97
*932 FILLER_35_105
*933 FILLER_35_111
*934 FILLER_35_113
*935 FILLER_35_125
*936 FILLER_35_137
*937 FILLER_35_149
*938 FILLER_35_15
*939 FILLER_35_161
*940 FILLER_35_167
*941 FILLER_35_169
*942 FILLER_35_181
*943 FILLER_35_193
*944 FILLER_35_205
*945 FILLER_35_217
*946 FILLER_35_223
*947 FILLER_35_225
*948 FILLER_35_237
*949 FILLER_35_249
*950 FILLER_35_261
*951 FILLER_35_27
*952 FILLER_35_273
*953 FILLER_35_279
*954 FILLER_35_281
*955 FILLER_35_293
*956 FILLER_35_3
*957 FILLER_35_39
*958 FILLER_35_51
*959 FILLER_35_55
*960 FILLER_35_57
*961 FILLER_35_69
*962 FILLER_35_81
*963 FILLER_35_93
*964 FILLER_36_109
*965 FILLER_36_121
*966 FILLER_36_133
*967 FILLER_36_139
*968 FILLER_36_141
*969 FILLER_36_15
*970 FILLER_36_153
*971 FILLER_36_165
*972 FILLER_36_177
*973 FILLER_36_189
*974 FILLER_36_195
*975 FILLER_36_197
*976 FILLER_36_209
*977 FILLER_36_221
*978 FILLER_36_233
*979 FILLER_36_245
*980 FILLER_36_251
*981 FILLER_36_253
*982 FILLER_36_265
*983 FILLER_36_27
*984 FILLER_36_277
*985 FILLER_36_285
*986 FILLER_36_29
*987 FILLER_36_290
*988 FILLER_36_298
*989 FILLER_36_3
*990 FILLER_36_41
*991 FILLER_36_53
*992 FILLER_36_65
*993 FILLER_36_77
*994 FILLER_36_83
*995 FILLER_36_85
*996 FILLER_36_97
*997 FILLER_37_105
*998 FILLER_37_111
*999 FILLER_37_113
*1000 FILLER_37_125
*1001 FILLER_37_137
*1002 FILLER_37_149
*1003 FILLER_37_161
*1004 FILLER_37_167
*1005 FILLER_37_169
*1006 FILLER_37_181
*1007 FILLER_37_193
*1008 FILLER_37_205
*1009 FILLER_37_21
*1010 FILLER_37_217
*1011 FILLER_37_223
*1012 FILLER_37_225
*1013 FILLER_37_237
*1014 FILLER_37_249
*1015 FILLER_37_261
*1016 FILLER_37_273
*1017 FILLER_37_279
*1018 FILLER_37_281
*1019 FILLER_37_290
*1020 FILLER_37_33
*1021 FILLER_37_45
*1022 FILLER_37_53
*1023 FILLER_37_57
*1024 FILLER_37_69
*1025 FILLER_37_81
*1026 FILLER_37_9
*1027 FILLER_37_93
*1028 FILLER_38_109
*1029 FILLER_38_121
*1030 FILLER_38_133
*1031 FILLER_38_139
*1032 FILLER_38_141
*1033 FILLER_38_15
*1034 FILLER_38_153
*1035 FILLER_38_165
*1036 FILLER_38_177
*1037 FILLER_38_189
*1038 FILLER_38_195
*1039 FILLER_38_197
*1040 FILLER_38_209
*1041 FILLER_38_221
*1042 FILLER_38_233
*1043 FILLER_38_245
*1044 FILLER_38_251
*1045 FILLER_38_253
*1046 FILLER_38_265
*1047 FILLER_38_27
*1048 FILLER_38_277
*1049 FILLER_38_289
*1050 FILLER_38_29
*1051 FILLER_38_297
*1052 FILLER_38_3
*1053 FILLER_38_41
*1054 FILLER_38_53
*1055 FILLER_38_65
*1056 FILLER_38_77
*1057 FILLER_38_83
*1058 FILLER_38_85
*1059 FILLER_38_97
*1060 FILLER_39_105
*1061 FILLER_39_111
*1062 FILLER_39_113
*1063 FILLER_39_125
*1064 FILLER_39_137
*1065 FILLER_39_149
*1066 FILLER_39_15
*1067 FILLER_39_161
*1068 FILLER_39_167
*1069 FILLER_39_169
*1070 FILLER_39_181
*1071 FILLER_39_193
*1072 FILLER_39_205
*1073 FILLER_39_217
*1074 FILLER_39_223
*1075 FILLER_39_225
*1076 FILLER_39_237
*1077 FILLER_39_249
*1078 FILLER_39_261
*1079 FILLER_39_27
*1080 FILLER_39_273
*1081 FILLER_39_279
*1082 FILLER_39_281
*1083 FILLER_39_293
*1084 FILLER_39_3
*1085 FILLER_39_39
*1086 FILLER_39_51
*1087 FILLER_39_55
*1088 FILLER_39_57
*1089 FILLER_39_69
*1090 FILLER_39_81
*1091 FILLER_39_93
*1092 FILLER_3_105
*1093 FILLER_3_111
*1094 FILLER_3_113
*1095 FILLER_3_125
*1096 FILLER_3_137
*1097 FILLER_3_149
*1098 FILLER_3_15
*1099 FILLER_3_161
*1100 FILLER_3_167
*1101 FILLER_3_169
*1102 FILLER_3_181
*1103 FILLER_3_193
*1104 FILLER_3_205
*1105 FILLER_3_217
*1106 FILLER_3_223
*1107 FILLER_3_225
*1108 FILLER_3_237
*1109 FILLER_3_249
*1110 FILLER_3_261
*1111 FILLER_3_27
*1112 FILLER_3_273
*1113 FILLER_3_279
*1114 FILLER_3_281
*1115 FILLER_3_293
*1116 FILLER_3_3
*1117 FILLER_3_39
*1118 FILLER_3_51
*1119 FILLER_3_55
*1120 FILLER_3_57
*1121 FILLER_3_69
*1122 FILLER_3_81
*1123 FILLER_3_93
*1124 FILLER_40_109
*1125 FILLER_40_121
*1126 FILLER_40_133
*1127 FILLER_40_139
*1128 FILLER_40_141
*1129 FILLER_40_15
*1130 FILLER_40_153
*1131 FILLER_40_165
*1132 FILLER_40_177
*1133 FILLER_40_189
*1134 FILLER_40_195
*1135 FILLER_40_197
*1136 FILLER_40_209
*1137 FILLER_40_221
*1138 FILLER_40_233
*1139 FILLER_40_245
*1140 FILLER_40_251
*1141 FILLER_40_253
*1142 FILLER_40_265
*1143 FILLER_40_27
*1144 FILLER_40_277
*1145 FILLER_40_285
*1146 FILLER_40_29
*1147 FILLER_40_290
*1148 FILLER_40_3
*1149 FILLER_40_41
*1150 FILLER_40_53
*1151 FILLER_40_65
*1152 FILLER_40_77
*1153 FILLER_40_83
*1154 FILLER_40_85
*1155 FILLER_40_97
*1156 FILLER_41_105
*1157 FILLER_41_111
*1158 FILLER_41_113
*1159 FILLER_41_125
*1160 FILLER_41_137
*1161 FILLER_41_149
*1162 FILLER_41_15
*1163 FILLER_41_161
*1164 FILLER_41_167
*1165 FILLER_41_169
*1166 FILLER_41_181
*1167 FILLER_41_193
*1168 FILLER_41_205
*1169 FILLER_41_217
*1170 FILLER_41_223
*1171 FILLER_41_225
*1172 FILLER_41_237
*1173 FILLER_41_249
*1174 FILLER_41_261
*1175 FILLER_41_27
*1176 FILLER_41_273
*1177 FILLER_41_279
*1178 FILLER_41_281
*1179 FILLER_41_293
*1180 FILLER_41_3
*1181 FILLER_41_39
*1182 FILLER_41_51
*1183 FILLER_41_55
*1184 FILLER_41_57
*1185 FILLER_41_69
*1186 FILLER_41_81
*1187 FILLER_41_93
*1188 FILLER_42_109
*1189 FILLER_42_121
*1190 FILLER_42_133
*1191 FILLER_42_139
*1192 FILLER_42_141
*1193 FILLER_42_15
*1194 FILLER_42_153
*1195 FILLER_42_165
*1196 FILLER_42_177
*1197 FILLER_42_189
*1198 FILLER_42_195
*1199 FILLER_42_197
*1200 FILLER_42_209
*1201 FILLER_42_221
*1202 FILLER_42_233
*1203 FILLER_42_245
*1204 FILLER_42_251
*1205 FILLER_42_253
*1206 FILLER_42_265
*1207 FILLER_42_27
*1208 FILLER_42_277
*1209 FILLER_42_289
*1210 FILLER_42_29
*1211 FILLER_42_297
*1212 FILLER_42_3
*1213 FILLER_42_41
*1214 FILLER_42_53
*1215 FILLER_42_65
*1216 FILLER_42_77
*1217 FILLER_42_83
*1218 FILLER_42_85
*1219 FILLER_42_97
*1220 FILLER_43_105
*1221 FILLER_43_111
*1222 FILLER_43_113
*1223 FILLER_43_125
*1224 FILLER_43_137
*1225 FILLER_43_149
*1226 FILLER_43_15
*1227 FILLER_43_161
*1228 FILLER_43_167
*1229 FILLER_43_169
*1230 FILLER_43_181
*1231 FILLER_43_193
*1232 FILLER_43_205
*1233 FILLER_43_217
*1234 FILLER_43_223
*1235 FILLER_43_225
*1236 FILLER_43_237
*1237 FILLER_43_249
*1238 FILLER_43_261
*1239 FILLER_43_27
*1240 FILLER_43_273
*1241 FILLER_43_279
*1242 FILLER_43_281
*1243 FILLER_43_3
*1244 FILLER_43_39
*1245 FILLER_43_51
*1246 FILLER_43_55
*1247 FILLER_43_57
*1248 FILLER_43_69
*1249 FILLER_43_81
*1250 FILLER_43_93
*1251 FILLER_44_109
*1252 FILLER_44_121
*1253 FILLER_44_133
*1254 FILLER_44_139
*1255 FILLER_44_141
*1256 FILLER_44_15
*1257 FILLER_44_153
*1258 FILLER_44_165
*1259 FILLER_44_177
*1260 FILLER_44_189
*1261 FILLER_44_195
*1262 FILLER_44_197
*1263 FILLER_44_209
*1264 FILLER_44_221
*1265 FILLER_44_233
*1266 FILLER_44_245
*1267 FILLER_44_251
*1268 FILLER_44_253
*1269 FILLER_44_265
*1270 FILLER_44_27
*1271 FILLER_44_277
*1272 FILLER_44_289
*1273 FILLER_44_29
*1274 FILLER_44_297
*1275 FILLER_44_3
*1276 FILLER_44_41
*1277 FILLER_44_53
*1278 FILLER_44_65
*1279 FILLER_44_77
*1280 FILLER_44_83
*1281 FILLER_44_85
*1282 FILLER_44_97
*1283 FILLER_45_105
*1284 FILLER_45_111
*1285 FILLER_45_113
*1286 FILLER_45_125
*1287 FILLER_45_137
*1288 FILLER_45_149
*1289 FILLER_45_15
*1290 FILLER_45_161
*1291 FILLER_45_167
*1292 FILLER_45_169
*1293 FILLER_45_181
*1294 FILLER_45_193
*1295 FILLER_45_205
*1296 FILLER_45_217
*1297 FILLER_45_223
*1298 FILLER_45_225
*1299 FILLER_45_237
*1300 FILLER_45_249
*1301 FILLER_45_261
*1302 FILLER_45_27
*1303 FILLER_45_273
*1304 FILLER_45_279
*1305 FILLER_45_281
*1306 FILLER_45_293
*1307 FILLER_45_3
*1308 FILLER_45_39
*1309 FILLER_45_51
*1310 FILLER_45_55
*1311 FILLER_45_57
*1312 FILLER_45_69
*1313 FILLER_45_81
*1314 FILLER_45_93
*1315 FILLER_46_109
*1316 FILLER_46_113
*1317 FILLER_46_125
*1318 FILLER_46_137
*1319 FILLER_46_141
*1320 FILLER_46_15
*1321 FILLER_46_153
*1322 FILLER_46_165
*1323 FILLER_46_169
*1324 FILLER_46_181
*1325 FILLER_46_193
*1326 FILLER_46_197
*1327 FILLER_46_209
*1328 FILLER_46_221
*1329 FILLER_46_225
*1330 FILLER_46_237
*1331 FILLER_46_249
*1332 FILLER_46_253
*1333 FILLER_46_265
*1334 FILLER_46_27
*1335 FILLER_46_277
*1336 FILLER_46_281
*1337 FILLER_46_29
*1338 FILLER_46_3
*1339 FILLER_46_41
*1340 FILLER_46_53
*1341 FILLER_46_57
*1342 FILLER_46_69
*1343 FILLER_46_81
*1344 FILLER_46_85
*1345 FILLER_46_97
*1346 FILLER_4_109
*1347 FILLER_4_121
*1348 FILLER_4_133
*1349 FILLER_4_139
*1350 FILLER_4_141
*1351 FILLER_4_15
*1352 FILLER_4_153
*1353 FILLER_4_165
*1354 FILLER_4_177
*1355 FILLER_4_189
*1356 FILLER_4_195
*1357 FILLER_4_197
*1358 FILLER_4_209
*1359 FILLER_4_221
*1360 FILLER_4_233
*1361 FILLER_4_245
*1362 FILLER_4_251
*1363 FILLER_4_253
*1364 FILLER_4_265
*1365 FILLER_4_27
*1366 FILLER_4_277
*1367 FILLER_4_289
*1368 FILLER_4_29
*1369 FILLER_4_3
*1370 FILLER_4_41
*1371 FILLER_4_53
*1372 FILLER_4_65
*1373 FILLER_4_77
*1374 FILLER_4_83
*1375 FILLER_4_85
*1376 FILLER_4_97
*1377 FILLER_5_105
*1378 FILLER_5_111
*1379 FILLER_5_113
*1380 FILLER_5_125
*1381 FILLER_5_137
*1382 FILLER_5_149
*1383 FILLER_5_15
*1384 FILLER_5_161
*1385 FILLER_5_167
*1386 FILLER_5_169
*1387 FILLER_5_181
*1388 FILLER_5_193
*1389 FILLER_5_205
*1390 FILLER_5_217
*1391 FILLER_5_223
*1392 FILLER_5_225
*1393 FILLER_5_237
*1394 FILLER_5_249
*1395 FILLER_5_261
*1396 FILLER_5_27
*1397 FILLER_5_273
*1398 FILLER_5_279
*1399 FILLER_5_281
*1400 FILLER_5_293
*1401 FILLER_5_3
*1402 FILLER_5_39
*1403 FILLER_5_51
*1404 FILLER_5_55
*1405 FILLER_5_57
*1406 FILLER_5_69
*1407 FILLER_5_81
*1408 FILLER_5_93
*1409 FILLER_6_109
*1410 FILLER_6_121
*1411 FILLER_6_133
*1412 FILLER_6_139
*1413 FILLER_6_141
*1414 FILLER_6_15
*1415 FILLER_6_153
*1416 FILLER_6_165
*1417 FILLER_6_177
*1418 FILLER_6_189
*1419 FILLER_6_195
*1420 FILLER_6_197
*1421 FILLER_6_209
*1422 FILLER_6_221
*1423 FILLER_6_233
*1424 FILLER_6_245
*1425 FILLER_6_251
*1426 FILLER_6_253
*1427 FILLER_6_265
*1428 FILLER_6_27
*1429 FILLER_6_277
*1430 FILLER_6_285
*1431 FILLER_6_29
*1432 FILLER_6_290
*1433 FILLER_6_298
*1434 FILLER_6_3
*1435 FILLER_6_41
*1436 FILLER_6_53
*1437 FILLER_6_65
*1438 FILLER_6_77
*1439 FILLER_6_83
*1440 FILLER_6_85
*1441 FILLER_6_97
*1442 FILLER_7_105
*1443 FILLER_7_111
*1444 FILLER_7_113
*1445 FILLER_7_125
*1446 FILLER_7_137
*1447 FILLER_7_149
*1448 FILLER_7_15
*1449 FILLER_7_161
*1450 FILLER_7_167
*1451 FILLER_7_169
*1452 FILLER_7_181
*1453 FILLER_7_193
*1454 FILLER_7_205
*1455 FILLER_7_217
*1456 FILLER_7_223
*1457 FILLER_7_225
*1458 FILLER_7_237
*1459 FILLER_7_249
*1460 FILLER_7_261
*1461 FILLER_7_27
*1462 FILLER_7_273
*1463 FILLER_7_279
*1464 FILLER_7_281
*1465 FILLER_7_3
*1466 FILLER_7_39
*1467 FILLER_7_51
*1468 FILLER_7_55
*1469 FILLER_7_57
*1470 FILLER_7_69
*1471 FILLER_7_81
*1472 FILLER_7_93
*1473 FILLER_8_109
*1474 FILLER_8_121
*1475 FILLER_8_133
*1476 FILLER_8_139
*1477 FILLER_8_141
*1478 FILLER_8_15
*1479 FILLER_8_153
*1480 FILLER_8_165
*1481 FILLER_8_177
*1482 FILLER_8_189
*1483 FILLER_8_195
*1484 FILLER_8_197
*1485 FILLER_8_209
*1486 FILLER_8_221
*1487 FILLER_8_233
*1488 FILLER_8_245
*1489 FILLER_8_251
*1490 FILLER_8_253
*1491 FILLER_8_265
*1492 FILLER_8_27
*1493 FILLER_8_277
*1494 FILLER_8_289
*1495 FILLER_8_29
*1496 FILLER_8_297
*1497 FILLER_8_3
*1498 FILLER_8_41
*1499 FILLER_8_53
*1500 FILLER_8_65
*1501 FILLER_8_77
*1502 FILLER_8_83
*1503 FILLER_8_85
*1504 FILLER_8_97
*1505 FILLER_9_105
*1506 FILLER_9_111
*1507 FILLER_9_113
*1508 FILLER_9_125
*1509 FILLER_9_137
*1510 FILLER_9_149
*1511 FILLER_9_15
*1512 FILLER_9_161
*1513 FILLER_9_167
*1514 FILLER_9_169
*1515 FILLER_9_181
*1516 FILLER_9_193
*1517 FILLER_9_205
*1518 FILLER_9_217
*1519 FILLER_9_223
*1520 FILLER_9_225
*1521 FILLER_9_237
*1522 FILLER_9_249
*1523 FILLER_9_261
*1524 FILLER_9_27
*1525 FILLER_9_273
*1526 FILLER_9_279
*1527 FILLER_9_281
*1528 FILLER_9_293
*1529 FILLER_9_3
*1530 FILLER_9_39
*1531 FILLER_9_51
*1532 FILLER_9_55
*1533 FILLER_9_57
*1534 FILLER_9_69
*1535 FILLER_9_81
*1536 FILLER_9_93
*1537 PHY_EDGE_ROW_0_Left_47
*1538 PHY_EDGE_ROW_0_Right_0
*1539 PHY_EDGE_ROW_10_Left_57
*1540 PHY_EDGE_ROW_10_Right_10
*1541 PHY_EDGE_ROW_11_Left_58
*1542 PHY_EDGE_ROW_11_Right_11
*1543 PHY_EDGE_ROW_12_Left_59
*1544 PHY_EDGE_ROW_12_Right_12
*1545 PHY_EDGE_ROW_13_Left_60
*1546 PHY_EDGE_ROW_13_Right_13
*1547 PHY_EDGE_ROW_14_Left_61
*1548 PHY_EDGE_ROW_14_Right_14
*1549 PHY_EDGE_ROW_15_Left_62
*1550 PHY_EDGE_ROW_15_Right_15
*1551 PHY_EDGE_ROW_16_Left_63
*1552 PHY_EDGE_ROW_16_Right_16
*1553 PHY_EDGE_ROW_17_Left_64
*1554 PHY_EDGE_ROW_17_Right_17
*1555 PHY_EDGE_ROW_18_Left_65
*1556 PHY_EDGE_ROW_18_Right_18
*1557 PHY_EDGE_ROW_19_Left_66
*1558 PHY_EDGE_ROW_19_Right_19
*1559 PHY_EDGE_ROW_1_Left_48
*1560 PHY_EDGE_ROW_1_Right_1
*1561 PHY_EDGE_ROW_20_Left_67
*1562 PHY_EDGE_ROW_20_Right_20
*1563 PHY_EDGE_ROW_21_Left_68
*1564 PHY_EDGE_ROW_21_Right_21
*1565 PHY_EDGE_ROW_22_Left_69
*1566 PHY_EDGE_ROW_22_Right_22
*1567 PHY_EDGE_ROW_23_Left_70
*1568 PHY_EDGE_ROW_23_Right_23
*1569 PHY_EDGE_ROW_24_Left_71
*1570 PHY_EDGE_ROW_24_Right_24
*1571 PHY_EDGE_ROW_25_Left_72
*1572 PHY_EDGE_ROW_25_Right_25