*SPEF "ieee 1481-1999"
*DESIGN "pmu"
*DATE "02:26:38 Saturday January 24, 2026"
*VENDOR "The OpenROAD Project"
*PROGRAM "OpenROAD"
*VERSION "edf00dff99f6c40d67a30c0e22a8191c5d2ed9d6"
*DESIGN_FLOW "NAME_SCOPE LOCAL" "PIN_CAP NONE"
*DIVIDER /
*DELIMITER :
*BUS_DELIMITER []
*T_UNIT 1 NS
*C_UNIT 1 PF
*R_UNIT 1 OHM
*L_UNIT 1 HENRY

*NAME_MAP
*1 clk
*2 pm_current_s0_o[0]
*3 pm_current_s0_o[1]
*4 pm_current_s0_o[2]
*5 pm_current_s0_o[3]
*6 pm_current_s0_o[4]
*7 pm_current_s0_o[5]
*8 pm_current_s0_o[6]
*9 pm_current_s0_o[7]
*10 pm_current_s1_o[0]
*11 pm_current_s1_o[1]
*12 pm_current_s1_o[2]
*13 pm_current_s1_o[3]
*14 pm_current_s1_o[4]
*15 pm_current_s1_o[5]
*16 pm_current_s1_o[6]
*17 pm_current_s1_o[7]
*18 pm_current_s2_o[0]
*19 pm_current_s2_o[1]
*20 pm_current_s2_o[2]
*21 pm_current_s2_o[3]
*22 pm_current_s2_o[4]
*23 pm_current_s2_o[5]
*24 pm_current_s2_o[6]
*25 pm_current_s2_o[7]
*26 pm_current_s3_o[0]
*27 pm_current_s3_o[1]
*28 pm_current_s3_o[2]
*29 pm_current_s3_o[3]
*30 pm_current_s3_o[4]
*31 pm_current_s3_o[5]
*32 pm_current_s3_o[6]
*33 pm_current_s3_o[7]
*34 pm_new_s0_i[0]
*35 pm_new_s0_i[1]
*36 pm_new_s0_i[2]
*37 pm_new_s0_i[3]
*38 pm_new_s0_i[4]
*39 pm_new_s0_i[5]
*40 pm_new_s0_i[6]
*41 pm_new_s0_i[7]
*42 pm_new_s1_i[0]
*43 pm_new_s1_i[1]
*44 pm_new_s1_i[2]
*45 pm_new_s1_i[3]
*46 pm_new_s1_i[4]
*47 pm_new_s1_i[5]
*48 pm_new_s1_i[6]
*49 pm_new_s1_i[7]
*50 pm_new_s2_i[0]
*51 pm_new_s2_i[1]
*52 pm_new_s2_i[2]
*53 pm_new_s2_i[3]
*54 pm_new_s2_i[4]
*55 pm_new_s2_i[5]
*56 pm_new_s2_i[6]
*57 pm_new_s2_i[7]
*58 pm_new_s3_i[0]
*59 pm_new_s3_i[1]
*60 pm_new_s3_i[2]
*61 pm_new_s3_i[3]
*62 pm_new_s3_i[4]
*63 pm_new_s3_i[5]
*64 pm_new_s3_i[6]
*65 pm_new_s3_i[7]
*66 rst_n
*67 valid_i
*70 _00_
*71 _01_
*72 _02_
*73 _03_
*74 _04_
*75 _05_
*76 _06_
*77 _07_
*78 _08_
*79 _09_
*80 _10_
*81 _11_
*82 _12_
*83 _13_
*84 _14_
*85 _15_
*86 _16_
*87 _17_
*88 _18_
*89 _19_
*90 _20_
*91 _21_
*92 _22_
*93 _23_
*94 _24_
*95 _25_
*96 _26_
*97 _27_
*98 _28_
*99 _29_
*100 _30_
*101 _31_
*102 clknet_0_clk
*103 clknet_2_0__leaf_clk
*104 clknet_2_1__leaf_clk
*105 clknet_2_2__leaf_clk
*106 clknet_2_3__leaf_clk
*107 net1
*108 net10
*109 net11
*110 net12
*111 net13
*112 net14
*113 net15
*114 net16
*115 net17
*116 net18
*117 net19
*118 net2
*119 net20
*120 net21
*121 net22
*122 net23
*123 net24
*124 net25
*125 net26
*126 net27
*127 net28
*128 net29
*129 net3
*130 net30
*131 net31
*132 net32
*133 net33
*134 net34
*135 net35
*136 net36
*137 net37
*138 net38
*139 net39
*140 net4
*141 net40
*142 net41
*143 net42
*144 net43
*145 net44
*146 net45
*147 net46
*148 net47
*149 net48
*150 net49
*151 net5
*152 net50
*153 net51
*154 net52
*155 net53
*156 net54
*157 net55
*158 net56
*159 net57
*160 net58
*161 net59
*162 net6
*163 net60
*164 net61
*165 net62
*166 net63
*167 net64
*168 net65
*169 net66
*170 net67
*171 net68
*172 net69
*173 net7
*174 net70
*175 net71
*176 net72
*177 net73
*178 net74
*179 net75
*180 net76
*181 net77
*182 net78
*183 net79
*184 net8
*185 net80
*186 net9
*187 FILLER_0_109
*188 FILLER_0_113
*189 FILLER_0_120
*190 FILLER_0_132
*191 FILLER_0_141
*192 FILLER_0_153
*193 FILLER_0_165
*194 FILLER_0_169
*195 FILLER_0_18
*196 FILLER_0_181
*197 FILLER_0_193
*198 FILLER_0_197
*199 FILLER_0_209
*200 FILLER_0_221
*201 FILLER_0_225
*202 FILLER_0_237
*203 FILLER_0_249
*204 FILLER_0_253
*205 FILLER_0_26
*206 FILLER_0_265
*207 FILLER_0_277
*208 FILLER_0_281
*209 FILLER_0_29
*210 FILLER_0_41
*211 FILLER_0_53
*212 FILLER_0_57
*213 FILLER_0_6
*214 FILLER_0_69
*215 FILLER_0_81
*216 FILLER_0_85
*217 FILLER_0_97
*218 FILLER_10_103
*219 FILLER_10_124
*220 FILLER_10_136
*221 FILLER_10_141
*222 FILLER_10_153
*223 FILLER_10_165
*224 FILLER_10_177
*225 FILLER_10_18
*226 FILLER_10_189
*227 FILLER_10_195
*228 FILLER_10_197
*229 FILLER_10_209
*230 FILLER_10_221
*231 FILLER_10_233
*232 FILLER_10_245
*233 FILLER_10_251
*234 FILLER_10_253
*235 FILLER_10_26
*236 FILLER_10_265
*237 FILLER_10_277
*238 FILLER_10_289
*239 FILLER_10_29
*240 FILLER_10_297
*241 FILLER_10_41
*242 FILLER_10_53
*243 FILLER_10_6
*244 FILLER_10_65
*245 FILLER_10_77
*246 FILLER_10_83
*247 FILLER_10_85
*248 FILLER_10_97
*249 FILLER_11_101
*250 FILLER_11_133
*251 FILLER_11_145
*252 FILLER_11_157
*253 FILLER_11_165
*254 FILLER_11_169
*255 FILLER_11_18
*256 FILLER_11_181
*257 FILLER_11_193
*258 FILLER_11_205
*259 FILLER_11_217
*260 FILLER_11_223
*261 FILLER_11_225
*262 FILLER_11_237
*263 FILLER_11_249
*264 FILLER_11_261
*265 FILLER_11_273
*266 FILLER_11_279
*267 FILLER_11_281
*268 FILLER_11_30
*269 FILLER_11_42
*270 FILLER_11_54
*271 FILLER_11_57
*272 FILLER_11_6
*273 FILLER_11_69
*274 FILLER_11_81
*275 FILLER_11_93
*276 FILLER_12_109
*277 FILLER_12_115
*278 FILLER_12_120
*279 FILLER_12_132
*280 FILLER_12_141
*281 FILLER_12_15
*282 FILLER_12_153
*283 FILLER_12_165
*284 FILLER_12_177
*285 FILLER_12_189
*286 FILLER_12_195
*287 FILLER_12_197
*288 FILLER_12_209
*289 FILLER_12_221
*290 FILLER_12_233
*291 FILLER_12_245
*292 FILLER_12_251
*293 FILLER_12_253
*294 FILLER_12_265
*295 FILLER_12_27
*296 FILLER_12_277
*297 FILLER_12_289
*298 FILLER_12_29
*299 FILLER_12_3
*300 FILLER_12_41
*301 FILLER_12_53
*302 FILLER_12_65
*303 FILLER_12_77
*304 FILLER_12_83
*305 FILLER_12_85
*306 FILLER_12_97
*307 FILLER_13_101
*308 FILLER_13_134
*309 FILLER_13_146
*310 FILLER_13_158
*311 FILLER_13_166
*312 FILLER_13_169
*313 FILLER_13_18
*314 FILLER_13_181
*315 FILLER_13_193
*316 FILLER_13_205
*317 FILLER_13_217
*318 FILLER_13_223
*319 FILLER_13_225
*320 FILLER_13_237
*321 FILLER_13_249
*322 FILLER_13_261
*323 FILLER_13_273
*324 FILLER_13_279
*325 FILLER_13_281
*326 FILLER_13_293
*327 FILLER_13_30
*328 FILLER_13_42
*329 FILLER_13_54
*330 FILLER_13_57
*331 FILLER_13_6
*332 FILLER_13_69
*333 FILLER_13_81
*334 FILLER_13_93
*335 FILLER_14_103
*336 FILLER_14_134
*337 FILLER_14_141
*338 FILLER_14_153
*339 FILLER_14_165
*340 FILLER_14_177
*341 FILLER_14_18
*342 FILLER_14_189
*343 FILLER_14_195
*344 FILLER_14_197
*345 FILLER_14_209
*346 FILLER_14_221
*347 FILLER_14_233
*348 FILLER_14_245
*349 FILLER_14_251
*350 FILLER_14_253
*351 FILLER_14_26
*352 FILLER_14_265
*353 FILLER_14_277
*354 FILLER_14_289
*355 FILLER_14_29
*356 FILLER_14_41
*357 FILLER_14_53
*358 FILLER_14_6
*359 FILLER_14_65
*360 FILLER_14_77
*361 FILLER_14_83
*362 FILLER_14_85
*363 FILLER_14_97
*364 FILLER_15_122
*365 FILLER_15_134
*366 FILLER_15_146
*367 FILLER_15_15
*368 FILLER_15_158
*369 FILLER_15_166
*370 FILLER_15_169
*371 FILLER_15_181
*372 FILLER_15_193
*373 FILLER_15_205
*374 FILLER_15_217
*375 FILLER_15_223
*376 FILLER_15_225
*377 FILLER_15_237
*378 FILLER_15_249
*379 FILLER_15_261
*380 FILLER_15_27
*381 FILLER_15_273
*382 FILLER_15_279
*383 FILLER_15_281
*384 FILLER_15_3
*385 FILLER_15_39
*386 FILLER_15_51
*387 FILLER_15_55
*388 FILLER_15_57
*389 FILLER_15_69
*390 FILLER_15_81
*391 FILLER_15_93
*392 FILLER_16_103
*393 FILLER_16_125
*394 FILLER_16_137
*395 FILLER_16_141
*396 FILLER_16_153
*397 FILLER_16_165
*398 FILLER_16_177
*399 FILLER_16_18
*400 FILLER_16_189
*401 FILLER_16_195
*402 FILLER_16_197
*403 FILLER_16_209
*404 FILLER_16_221
*405 FILLER_16_233
*406 FILLER_16_245
*407 FILLER_16_251
*408 FILLER_16_253
*409 FILLER_16_26
*410 FILLER_16_265
*411 FILLER_16_277
*412 FILLER_16_289
*413 FILLER_16_29
*414 FILLER_16_297
*415 FILLER_16_41
*416 FILLER_16_53
*417 FILLER_16_6
*418 FILLER_16_65
*419 FILLER_16_77
*420 FILLER_16_83
*421 FILLER_16_85
*422 FILLER_16_97
*423 FILLER_17_134
*424 FILLER_17_146
*425 FILLER_17_158
*426 FILLER_17_166
*427 FILLER_17_169
*428 FILLER_17_18
*429 FILLER_17_181
*430 FILLER_17_193
*431 FILLER_17_205
*432 FILLER_17_217
*433 FILLER_17_223
*434 FILLER_17_225
*435 FILLER_17_237
*436 FILLER_17_249
*437 FILLER_17_261
*438 FILLER_17_273
*439 FILLER_17_279
*440 FILLER_17_281
*441 FILLER_17_30
*442 FILLER_17_42
*443 FILLER_17_54
*444 FILLER_17_57
*445 FILLER_17_6
*446 FILLER_17_69
*447 FILLER_17_81
*448 FILLER_17_89
*449 FILLER_18_125
*450 FILLER_18_137
*451 FILLER_18_141
*452 FILLER_18_15
*453 FILLER_18_153
*454 FILLER_18_165
*455 FILLER_18_177
*456 FILLER_18_189
*457 FILLER_18_195
*458 FILLER_18_197
*459 FILLER_18_209
*460 FILLER_18_221
*461 FILLER_18_233
*462 FILLER_18_245
*463 FILLER_18_251
*464 FILLER_18_253
*465 FILLER_18_265
*466 FILLER_18_27
*467 FILLER_18_277
*468 FILLER_18_289
*469 FILLER_18_29
*470 FILLER_18_3
*471 FILLER_18_41
*472 FILLER_18_53
*473 FILLER_18_65
*474 FILLER_18_77
*475 FILLER_18_83
*476 FILLER_18_85
*477 FILLER_18_97
*478 FILLER_19_101
*479 FILLER_19_134
*480 FILLER_19_146
*481 FILLER_19_158
*482 FILLER_19_166
*483 FILLER_19_169
*484 FILLER_19_18
*485 FILLER_19_181
*486 FILLER_19_193
*487 FILLER_19_205
*488 FILLER_19_217
*489 FILLER_19_223
*490 FILLER_19_225
*491 FILLER_19_237
*492 FILLER_19_249
*493 FILLER_19_261
*494 FILLER_19_273
*495 FILLER_19_279
*496 FILLER_19_281
*497 FILLER_19_293
*498 FILLER_19_30
*499 FILLER_19_42
*500 FILLER_19_54
*501 FILLER_19_57
*502 FILLER_19_6
*503 FILLER_19_69
*504 FILLER_19_81
*505 FILLER_19_93
*506 FILLER_1_101
*507 FILLER_1_133
*508 FILLER_1_145
*509 FILLER_1_157
*510 FILLER_1_165
*511 FILLER_1_169
*512 FILLER_1_18
*513 FILLER_1_181
*514 FILLER_1_193
*515 FILLER_1_205
*516 FILLER_1_217
*517 FILLER_1_223
*518 FILLER_1_225
*519 FILLER_1_237
*520 FILLER_1_249
*521 FILLER_1_261
*522 FILLER_1_273
*523 FILLER_1_279
*524 FILLER_1_281
*525 FILLER_1_293
*526 FILLER_1_30
*527 FILLER_1_42
*528 FILLER_1_54
*529 FILLER_1_57
*530 FILLER_1_6
*531 FILLER_1_69
*532 FILLER_1_81
*533 FILLER_1_93
*534 FILLER_20_133
*535 FILLER_20_139
*536 FILLER_20_141
*537 FILLER_20_153
*538 FILLER_20_165
*539 FILLER_20_177
*540 FILLER_20_18
*541 FILLER_20_189
*542 FILLER_20_195
*543 FILLER_20_197
*544 FILLER_20_209
*545 FILLER_20_221
*546 FILLER_20_233
*547 FILLER_20_245
*548 FILLER_20_251
*549 FILLER_20_253
*550 FILLER_20_26
*551 FILLER_20_265
*552 FILLER_20_277
*553 FILLER_20_289
*554 FILLER_20_29
*555 FILLER_20_41
*556 FILLER_20_53
*557 FILLER_20_6
*558 FILLER_20_65
*559 FILLER_20_77
*560 FILLER_20_83
*561 FILLER_20_85
*562 FILLER_20_97
*563 FILLER_21_105
*564 FILLER_21_111
*565 FILLER_21_122
*566 FILLER_21_134
*567 FILLER_21_146
*568 FILLER_21_15
*569 FILLER_21_158
*570 FILLER_21_166
*571 FILLER_21_169
*572 FILLER_21_181
*573 FILLER_21_193
*574 FILLER_21_205
*575 FILLER_21_217
*576 FILLER_21_223
*577 FILLER_21_225
*578 FILLER_21_237
*579 FILLER_21_249
*580 FILLER_21_261
*581 FILLER_21_27
*582 FILLER_21_273
*583 FILLER_21_279
*584 FILLER_21_281
*585 FILLER_21_3
*586 FILLER_21_39
*587 FILLER_21_51
*588 FILLER_21_55
*589 FILLER_21_57
*590 FILLER_21_69
*591 FILLER_21_81
*592 FILLER_21_93
*593 FILLER_22_128
*594 FILLER_22_141
*595 FILLER_22_153
*596 FILLER_22_165
*597 FILLER_22_177
*598 FILLER_22_18
*599 FILLER_22_189
*600 FILLER_22_195
*601 FILLER_22_197
*602 FILLER_22_209
*603 FILLER_22_221
*604 FILLER_22_233
*605 FILLER_22_245
*606 FILLER_22_251
*607 FILLER_22_253
*608 FILLER_22_26
*609 FILLER_22_265
*610 FILLER_22_277
*611 FILLER_22_289
*612 FILLER_22_29
*613 FILLER_22_297
*614 FILLER_22_41
*615 FILLER_22_53
*616 FILLER_22_6
*617 FILLER_22_65
*618 FILLER_22_77
*619 FILLER_22_83
*620 FILLER_22_85
*621 FILLER_22_97
*622 FILLER_23_101
*623 FILLER_23_133
*624 FILLER_23_145
*625 FILLER_23_157
*626 FILLER_23_165
*627 FILLER_23_169
*628 FILLER_23_18
*629 FILLER_23_181
*630 FILLER_23_193
*631 FILLER_23_205
*632 FILLER_23_217
*633 FILLER_23_223
*634 FILLER_23_225
*635 FILLER_23_237
*636 FILLER_23_249
*637 FILLER_23_261
*638 FILLER_23_273
*639 FILLER_23_279
*640 FILLER_23_281
*641 FILLER_23_30
*642 FILLER_23_42
*643 FILLER_23_54
*644 FILLER_23_57
*645 FILLER_23_6
*646 FILLER_23_69
*647 FILLER_23_81
*648 FILLER_23_93
*649 FILLER_24_117
*650 FILLER_24_128
*651 FILLER_24_141
*652 FILLER_24_15
*653 FILLER_24_153
*654 FILLER_24_165
*655 FILLER_24_177
*656 FILLER_24_189
*657 FILLER_24_195
*658 FILLER_24_197
*659 FILLER_24_209
*660 FILLER_24_221
*661 FILLER_24_233
*662 FILLER_24_245
*663 FILLER_24_251
*664 FILLER_24_253
*665 FILLER_24_265
*666 FILLER_24_27
*667 FILLER_24_277
*668 FILLER_24_289
*669 FILLER_24_29
*670 FILLER_24_3
*671 FILLER_24_41
*672 FILLER_24_53
*673 FILLER_24_65
*674 FILLER_24_77
*675 FILLER_24_83
*676 FILLER_24_85
*677 FILLER_24_97
*678 FILLER_25_101
*679 FILLER_25_134
*680 FILLER_25_146
*681 FILLER_25_158
*682 FILLER_25_166
*683 FILLER_25_169
*684 FILLER_25_18
*685 FILLER_25_181
*686 FILLER_25_193
*687 FILLER_25_205
*688 FILLER_25_217
*689 FILLER_25_223
*690 FILLER_25_225
*691 FILLER_25_237
*692 FILLER_25_249
*693 FILLER_25_261
*694 FILLER_25_273
*695 FILLER_25_279
*696 FILLER_25_281
*697 FILLER_25_293
*698 FILLER_25_30
*699 FILLER_25_42
*700 FILLER_25_54
*701 FILLER_25_57
*702 FILLER_25_6
*703 FILLER_25_69
*704 FILLER_25_81
*705 FILLER_25_93
*706 FILLER_26_109
*707 FILLER_26_113
*708 FILLER_26_135
*709 FILLER_26_139
*710 FILLER_26_141
*711 FILLER_26_153
*712 FILLER_26_165
*713 FILLER_26_177
*714 FILLER_26_18
*715 FILLER_26_189
*716 FILLER_26_195
*717 FILLER_26_197
*718 FILLER_26_209
*719 FILLER_26_221
*720 FILLER_26_233
*721 FILLER_26_245
*722 FILLER_26_251
*723 FILLER_26_253
*724 FILLER_26_26
*725 FILLER_26_265
*726 FILLER_26_277
*727 FILLER_26_289
*728 FILLER_26_29
*729 FILLER_26_41
*730 FILLER_26_53
*731 FILLER_26_6
*732 FILLER_26_65
*733 FILLER_26_77
*734 FILLER_26_83
*735 FILLER_26_85
*736 FILLER_26_97
*737 FILLER_27_105
*738 FILLER_27_111
*739 FILLER_27_113
*740 FILLER_27_140
*741 FILLER_27_15
*742 FILLER_27_152
*743 FILLER_27_164
*744 FILLER_27_169
*745 FILLER_27_181
*746 FILLER_27_193
*747 FILLER_27_205
*748 FILLER_27_217
*749 FILLER_27_223
*750 FILLER_27_225
*751 FILLER_27_237
*752 FILLER_27_249
*753 FILLER_27_261
*754 FILLER_27_27
*755 FILLER_27_273
*756 FILLER_27_279
*757 FILLER_27_281
*758 FILLER_27_3
*759 FILLER_27_39
*760 FILLER_27_51
*761 FILLER_27_55
*762 FILLER_27_57
*763 FILLER_27_69
*764 FILLER_27_81
*765 FILLER_27_93
*766 FILLER_28_109
*767 FILLER_28_117
*768 FILLER_28_150
*769 FILLER_28_162
*770 FILLER_28_174
*771 FILLER_28_18
*772 FILLER_28_186
*773 FILLER_28_194
*774 FILLER_28_197
*775 FILLER_28_209
*776 FILLER_28_221
*777 FILLER_28_233
*778 FILLER_28_245
*779 FILLER_28_251
*780 FILLER_28_253
*781 FILLER_28_26
*782 FILLER_28_265
*783 FILLER_28_277
*784 FILLER_28_289
*785 FILLER_28_29
*786 FILLER_28_297
*787 FILLER_28_41
*788 FILLER_28_53
*789 FILLER_28_6
*790 FILLER_28_65
*791 FILLER_28_77
*792 FILLER_28_83
*793 FILLER_28_85
*794 FILLER_28_97
*795 FILLER_29_105
*796 FILLER_29_111
*797 FILLER_29_113
*798 FILLER_29_121
*799 FILLER_29_143
*800 FILLER_29_155
*801 FILLER_29_167
*802 FILLER_29_169
*803 FILLER_29_18
*804 FILLER_29_181
*805 FILLER_29_193
*806 FILLER_29_205
*807 FILLER_29_217
*808 FILLER_29_223
*809 FILLER_29_225
*810 FILLER_29_237
*811 FILLER_29_249
*812 FILLER_29_261
*813 FILLER_29_273
*814 FILLER_29_279
*815 FILLER_29_281
*816 FILLER_29_30
*817 FILLER_29_42
*818 FILLER_29_54
*819 FILLER_29_57
*820 FILLER_29_6
*821 FILLER_29_69
*822 FILLER_29_81
*823 FILLER_29_93
*824 FILLER_2_136
*825 FILLER_2_141
*826 FILLER_2_153
*827 FILLER_2_165
*828 FILLER_2_177
*829 FILLER_2_18
*830 FILLER_2_189
*831 FILLER_2_195
*832 FILLER_2_197
*833 FILLER_2_209
*834 FILLER_2_221
*835 FILLER_2_233
*836 FILLER_2_245
*837 FILLER_2_251
*838 FILLER_2_253
*839 FILLER_2_26
*840 FILLER_2_265
*841 FILLER_2_277
*842 FILLER_2_289
*843 FILLER_2_29
*844 FILLER_2_41
*845 FILLER_2_53
*846 FILLER_2_6
*847 FILLER_2_65
*848 FILLER_2_77
*849 FILLER_2_83
*850 FILLER_2_85
*851 FILLER_2_97
*852 FILLER_30_109
*853 FILLER_30_132
*854 FILLER_30_15
*855 FILLER_30_150
*856 FILLER_30_162
*857 FILLER_30_174
*858 FILLER_30_186
*859 FILLER_30_194
*860 FILLER_30_197
*861 FILLER_30_209
*862 FILLER_30_221
*863 FILLER_30_233
*864 FILLER_30_245
*865 FILLER_30_251
*866 FILLER_30_253
*867 FILLER_30_265
*868 FILLER_30_27
*869 FILLER_30_277
*870 FILLER_30_289
*871 FILLER_30_29
*872 FILLER_30_3
*873 FILLER_30_41
*874 FILLER_30_53
*875 FILLER_30_65
*876 FILLER_30_77
*877 FILLER_30_83
*878 FILLER_30_85
*879 FILLER_30_97
*880 FILLER_31_105
*881 FILLER_31_111
*882 FILLER_31_122
*883 FILLER_31_146
*884 FILLER_31_158
*885 FILLER_31_166
*886 FILLER_31_169
*887 FILLER_31_18
*888 FILLER_31_181
*889 FILLER_31_193
*890 FILLER_31_205
*891 FILLER_31_217
*892 FILLER_31_223
*893 FILLER_31_225
*894 FILLER_31_237
*895 FILLER_31_249
*896 FILLER_31_261
*897 FILLER_31_273
*898 FILLER_31_279
*899 FILLER_31_281
*900 FILLER_31_293
*901 FILLER_31_30
*902 FILLER_31_42
*903 FILLER_31_54
*904 FILLER_31_57
*905 FILLER_31_6
*906 FILLER_31_69
*907 FILLER_31_81
*908 FILLER_31_93
*909 FILLER_32_105
*910 FILLER_32_129
*911 FILLER_32_141
*912 FILLER_32_153
*913 FILLER_32_165
*914 FILLER_32_177
*915 FILLER_32_18
*916 FILLER_32_189
*917 FILLER_32_195
*918 FILLER_32_197
*919 FILLER_32_209
*920 FILLER_32_221
*921 FILLER_32_233
*922 FILLER_32_245
*923 FILLER_32_251
*924 FILLER_32_253
*925 FILLER_32_26
*926 FILLER_32_265
*927 FILLER_32_277
*928 FILLER_32_289
*929 FILLER_32_29
*930 FILLER_32_41
*931 FILLER_32_53
*932 FILLER_32_6
*933 FILLER_32_65
*934 FILLER_32_77
*935 FILLER_32_83
*936 FILLER_32_85
*937 FILLER_32_97
*938 FILLER_33_105
*939 FILLER_33_111
*940 FILLER_33_113
*941 FILLER_33_125
*942 FILLER_33_129
*943 FILLER_33_15
*944 FILLER_33_151
*945 FILLER_33_163
*946 FILLER_33_167
*947 FILLER_33_169
*948 FILLER_33_181
*949 FILLER_33_193
*950 FILLER_33_205
*951 FILLER_33_217
*952 FILLER_33_223
*953 FILLER_33_225
*954 FILLER_33_237
*955 FILLER_33_249
*956 FILLER_33_261
*957 FILLER_33_27
*958 FILLER_33_273
*959 FILLER_33_279
*960 FILLER_33_281
*961 FILLER_33_3
*962 FILLER_33_39
*963 FILLER_33_51
*964 FILLER_33_55
*965 FILLER_33_57
*966 FILLER_33_69
*967 FILLER_33_81
*968 FILLER_33_93
*969 FILLER_34_109
*970 FILLER_34_121
*971 FILLER_34_133
*972 FILLER_34_139
*973 FILLER_34_150
*974 FILLER_34_162
*975 FILLER_34_174
*976 FILLER_34_18
*977 FILLER_34_186
*978 FILLER_34_194
*979 FILLER_34_197
*980 FILLER_34_209
*981 FILLER_34_221
*982 FILLER_34_233
*983 FILLER_34_245
*984 FILLER_34_251
*985 FILLER_34_253
*986 FILLER_34_26
*987 FILLER_34_265
*988 FILLER_34_277
*989 FILLER_34_289
*990 FILLER_34_29
*991 FILLER_34_297
*992 FILLER_34_41
*993 FILLER_34_53
*994 FILLER_34_6
*995 FILLER_34_65
*996 FILLER_34_77
*997 FILLER_34_83
*998 FILLER_34_85
*999 FILLER_34_97
*1000 FILLER_35_105
*1001 FILLER_35_111
*1002 FILLER_35_113
*1003 FILLER_35_125
*1004 FILLER_35_129
*1005 FILLER_35_151
*1006 FILLER_35_163
*1007 FILLER_35_167
*1008 FILLER_35_169
*1009 FILLER_35_18
*1010 FILLER_35_181
*1011 FILLER_35_193
*1012 FILLER_35_205
*1013 FILLER_35_217
*1014 FILLER_35_223
*1015 FILLER_35_225
*1016 FILLER_35_237
*1017 FILLER_35_249
*1018 FILLER_35_261
*1019 FILLER_35_273
*1020 FILLER_35_279
*1021 FILLER_35_281
*1022 FILLER_35_30
*1023 FILLER_35_42
*1024 FILLER_35_54
*1025 FILLER_35_57
*1026 FILLER_35_6
*1027 FILLER_35_69
*1028 FILLER_35_81
*1029 FILLER_35_93
*1030 FILLER_36_105
*1031 FILLER_36_129
*1032 FILLER_36_137
*1033 FILLER_36_15
*1034 FILLER_36_150
*1035 FILLER_36_162
*1036 FILLER_36_174
*1037 FILLER_36_186
*1038 FILLER_36_194
*1039 FILLER_36_197
*1040 FILLER_36_209
*1041 FILLER_36_221
*1042 FILLER_36_233
*1043 FILLER_36_245
*1044 FILLER_36_251
*1045 FILLER_36_253
*1046 FILLER_36_265
*1047 FILLER_36_27
*1048 FILLER_36_277
*1049 FILLER_36_289
*1050 FILLER_36_29
*1051 FILLER_36_3
*1052 FILLER_36_41
*1053 FILLER_36_53
*1054 FILLER_36_65
*1055 FILLER_36_77
*1056 FILLER_36_83
*1057 FILLER_36_85
*1058 FILLER_36_97
*1059 FILLER_37_105
*1060 FILLER_37_111
*1061 FILLER_37_126
*1062 FILLER_37_151
*1063 FILLER_37_163
*1064 FILLER_37_167
*1065 FILLER_37_169
*1066 FILLER_37_18
*1067 FILLER_37_181
*1068 FILLER_37_193
*1069 FILLER_37_205
*1070 FILLER_37_217
*1071 FILLER_37_223
*1072 FILLER_37_225
*1073 FILLER_37_237
*1074 FILLER_37_249
*1075 FILLER_37_261
*1076 FILLER_37_273
*1077 FILLER_37_279
*1078 FILLER_37_281
*1079 FILLER_37_293
*1080 FILLER_37_30
*1081 FILLER_37_42
*1082 FILLER_37_54
*1083 FILLER_37_57
*1084 FILLER_37_6
*1085 FILLER_37_69
*1086 FILLER_37_81
*1087 FILLER_37_93
*1088 FILLER_38_133
*1089 FILLER_38_139
*1090 FILLER_38_150
*1091 FILLER_38_162
*1092 FILLER_38_174
*1093 FILLER_38_18
*1094 FILLER_38_186
*1095 FILLER_38_194
*1096 FILLER_38_197
*1097 FILLER_38_209
*1098 FILLER_38_221
*1099 FILLER_38_233
*1100 FILLER_38_245
*1101 FILLER_38_251
*1102 FILLER_38_253
*1103 FILLER_38_26
*1104 FILLER_38_265
*1105 FILLER_38_277
*1106 FILLER_38_289
*1107 FILLER_38_29
*1108 FILLER_38_41
*1109 FILLER_38_53
*1110 FILLER_38_6
*1111 FILLER_38_65
*1112 FILLER_38_77
*1113 FILLER_38_83
*1114 FILLER_38_85
*1115 FILLER_38_97
*1116 FILLER_39_105
*1117 FILLER_39_111
*1118 FILLER_39_122
*1119 FILLER_39_134
*1120 FILLER_39_146
*1121 FILLER_39_15
*1122 FILLER_39_158
*1123 FILLER_39_166
*1124 FILLER_39_169
*1125 FILLER_39_181
*1126 FILLER_39_193
*1127 FILLER_39_205
*1128 FILLER_39_217
*1129 FILLER_39_223
*1130 FILLER_39_225
*1131 FILLER_39_237
*1132 FILLER_39_249
*1133 FILLER_39_261
*1134 FILLER_39_27
*1135 FILLER_39_273
*1136 FILLER_39_279
*1137 FILLER_39_281
*1138 FILLER_39_3
*1139 FILLER_39_39
*1140 FILLER_39_51
*1141 FILLER_39_55
*1142 FILLER_39_57
*1143 FILLER_39_69
*1144 FILLER_39_81
*1145 FILLER_39_93
*1146 FILLER_3_105
*1147 FILLER_3_133
*1148 FILLER_3_145
*1149 FILLER_3_15
*1150 FILLER_3_157
*1151 FILLER_3_165
*1152 FILLER_3_169
*1153 FILLER_3_181
*1154 FILLER_3_193
*1155 FILLER_3_205
*1156 FILLER_3_217
*1157 FILLER_3_223
*1158 FILLER_3_225
*1159 FILLER_3_237
*1160 FILLER_3_249
*1161 FILLER_3_261
*1162 FILLER_3_27
*1163 FILLER_3_273
*1164 FILLER_3_279
*1165 FILLER_3_281
*1166 FILLER_3_3
*1167 FILLER_3_39
*1168 FILLER_3_51
*1169 FILLER_3_55
*1170 FILLER_3_57
*1171 FILLER_3_69
*1172 FILLER_3_81
*1173 FILLER_3_93
*1174 FILLER_40_105
*1175 FILLER_40_138
*1176 FILLER_40_141
*1177 FILLER_40_153
*1178 FILLER_40_165
*1179 FILLER_40_177
*1180 FILLER_40_18
*1181 FILLER_40_189
*1182 FILLER_40_195
*1183 FILLER_40_197
*1184 FILLER_40_209
*1185 FILLER_40_221
*1186 FILLER_40_233
*1187 FILLER_40_245
*1188 FILLER_40_251
*1189 FILLER_40_253
*1190 FILLER_40_26
*1191 FILLER_40_265
*1192 FILLER_40_277
*1193 FILLER_40_289
*1194 FILLER_40_29
*1195 FILLER_40_297
*1196 FILLER_40_41
*1197 FILLER_40_53
*1198 FILLER_40_6
*1199 FILLER_40_65
*1200 FILLER_40_77
*1201 FILLER_40_83
*1202 FILLER_40_85
*1203 FILLER_40_97
*1204 FILLER_41_105
*1205 FILLER_41_111
*1206 FILLER_41_113
*1207 FILLER_41_140
*1208 FILLER_41_152
*1209 FILLER_41_164
*1210 FILLER_41_169
*1211 FILLER_41_18
*1212 FILLER_41_181
*1213 FILLER_41_193
*1214 FILLER_41_205
*1215 FILLER_41_217
*1216 FILLER_41_223
*1217 FILLER_41_225
*1218 FILLER_41_237
*1219 FILLER_41_249
*1220 FILLER_41_261
*1221 FILLER_41_273
*1222 FILLER_41_279
*1223 FILLER_41_281
*1224 FILLER_41_30
*1225 FILLER_41_42
*1226 FILLER_41_54
*1227 FILLER_41_57
*1228 FILLER_41_6
*1229 FILLER_41_69
*1230 FILLER_41_81
*1231 FILLER_41_93
*1232 FILLER_42_105
*1233 FILLER_42_129
*1234 FILLER_42_137
*1235 FILLER_42_141
*1236 FILLER_42_15
*1237 FILLER_42_153
*1238 FILLER_42_165
*1239 FILLER_42_177
*1240 FILLER_42_189
*1241 FILLER_42_195
*1242 FILLER_42_197
*1243 FILLER_42_209
*1244 FILLER_42_221
*1245 FILLER_42_233
*1246 FILLER_42_245
*1247 FILLER_42_251
*1248 FILLER_42_253
*1249 FILLER_42_265
*1250 FILLER_42_27
*1251 FILLER_42_277
*1252 FILLER_42_289
*1253 FILLER_42_29
*1254 FILLER_42_3
*1255 FILLER_42_41
*1256 FILLER_42_53
*1257 FILLER_42_65
*1258 FILLER_42_77
*1259 FILLER_42_83
*1260 FILLER_42_85
*1261 FILLER_42_97
*1262 FILLER_43_101
*1263 FILLER_43_113
*1264 FILLER_43_136
*1265 FILLER_43_148
*1266 FILLER_43_160
*1267 FILLER_43_169
*1268 FILLER_43_18
*1269 FILLER_43_181
*1270 FILLER_43_193
*1271 FILLER_43_205
*1272 FILLER_43_217
*1273 FILLER_43_223
*1274 FILLER_43_225
*1275 FILLER_43_237
*1276 FILLER_43_249
*1277 FILLER_43_261
*1278 FILLER_43_273
*1279 FILLER_43_279
*1280 FILLER_43_281
*1281 FILLER_43_293
*1282 FILLER_43_30
*1283 FILLER_43_42
*1284 FILLER_43_54
*1285 FILLER_43_57
*1286 FILLER_43_6
*1287 FILLER_43_69
*1288 FILLER_43_81
*1289 FILLER_43_93
*1290 FILLER_44_138
*1291 FILLER_44_141
*1292 FILLER_44_153
*1293 FILLER_44_165
*1294 FILLER_44_177
*1295 FILLER_44_18
*1296 FILLER_44_189
*1297 FILLER_44_195
*1298 FILLER_44_197
*1299 FILLER_44_209
*1300 FILLER_44_221
*1301 FILLER_44_233
*1302 FILLER_44_245
*1303 FILLER_44_251
*1304 FILLER_44_253
*1305 FILLER_44_26
*1306 FILLER_44_265
*1307 FILLER_44_277
*1308 FILLER_44_289
*1309 FILLER_44_29
*1310 FILLER_44_41
*1311 FILLER_44_53
*1312 FILLER_44_6
*1313 FILLER_44_65
*1314 FILLER_44_77
*1315 FILLER_44_83
*1316 FILLER_44_85
*1317 FILLER_45_101
*1318 FILLER_45_125
*1319 FILLER_45_137
*1320 FILLER_45_149
*1321 FILLER_45_15
*1322 FILLER_45_161
*1323 FILLER_45_167
*1324 FILLER_45_169
*1325 FILLER_45_181
*1326 FILLER_45_193
*1327 FILLER_45_205
*1328 FILLER_45_217
*1329 FILLER_45_223
*1330 FILLER_45_225
*1331 FILLER_45_237
*1332 FILLER_45_249
*1333 FILLER_45_261
*1334 FILLER_45_27
*1335 FILLER_45_273
*1336 FILLER_45_279
*1337 FILLER_45_281
*1338 FILLER_45_3
*1339 FILLER_45_39
*1340 FILLER_45_51
*1341 FILLER_45_55
*1342 FILLER_45_57
*1343 FILLER_45_69
*1344 FILLER_45_81
*1345 FILLER_45_93
*1346 FILLER_46_109
*1347 FILLER_46_116
*1348 FILLER_46_12
*1349 FILLER_46_128
*1350 FILLER_46_141
*1351 FILLER_46_153
*1352 FILLER_46_165
*1353 FILLER_46_169
*1354 FILLER_46_181
*1355 FILLER_46_193
*1356 FILLER_46_197
*1357 FILLER_46_209
*1358 FILLER_46_221
*1359 FILLER_46_225
*1360 FILLER_46_237
*1361 FILLER_46_24
*1362 FILLER_46_249
*1363 FILLER_46_253
*1364 FILLER_46_265
*1365 FILLER_46_277
*1366 FILLER_46_281
*1367 FILLER_46_29
*1368 FILLER_46_41
*1369 FILLER_46_53
*1370 FILLER_46_57
*1371 FILLER_46_69
*1372 FILLER_46_81
*1373 FILLER_46_85
*1374 FILLER_46_97
*1375 FILLER_4_132
*1376 FILLER_4_141
*1377 FILLER_4_153
*1378 FILLER_4_165
*1379 FILLER_4_177
*1380 FILLER_4_18
*1381 FILLER_4_189
*1382 FILLER_4_195
*1383 FILLER_4_197
*1384 FILLER_4_209
*1385 FILLER_4_221
*1386 FILLER_4_233
*1387 FILLER_4_245
*1388 FILLER_4_251
*1389 FILLER_4_253
*1390 FILLER_4_26
*1391 FILLER_4_265
*1392 FILLER_4_277
*1393 FILLER_4_289
*1394 FILLER_4_29
*1395 FILLER_4_297
*1396 FILLER_4_41
*1397 FILLER_4_53
*1398 FILLER_4_6
*1399 FILLER_4_65
*1400 FILLER_4_77
*1401 FILLER_4_83
*1402 FILLER_4_85
*1403 FILLER_4_97
*1404 FILLER_5_105
*1405 FILLER_5_111
*1406 FILLER_5_122
*1407 FILLER_5_134
*1408 FILLER_5_146
*1409 FILLER_5_158
*1410 FILLER_5_166
*1411 FILLER_5_169
*1412 FILLER_5_18
*1413 FILLER_5_181
*1414 FILLER_5_193
*1415 FILLER_5_205
*1416 FILLER_5_217
*1417 FILLER_5_223
*1418 FILLER_5_225
*1419 FILLER_5_237
*1420 FILLER_5_249
*1421 FILLER_5_261
*1422 FILLER_5_273
*1423 FILLER_5_279
*1424 FILLER_5_281
*1425 FILLER_5_30
*1426 FILLER_5_42
*1427 FILLER_5_54
*1428 FILLER_5_57
*1429 FILLER_5_6
*1430 FILLER_5_69
*1431 FILLER_5_81
*1432 FILLER_5_93
*1433 FILLER_6_103
*1434 FILLER_6_124
*1435 FILLER_6_136
*1436 FILLER_6_141
*1437 FILLER_6_15
*1438 FILLER_6_153
*1439 FILLER_6_165
*1440 FILLER_6_177
*1441 FILLER_6_189
*1442 FILLER_6_195
*1443 FILLER_6_197
*1444 FILLER_6_209
*1445 FILLER_6_221
*1446 FILLER_6_233
*1447 FILLER_6_245
*1448 FILLER_6_251
*1449 FILLER_6_253
*1450 FILLER_6_265
*1451 FILLER_6_27
*1452 FILLER_6_277
*1453 FILLER_6_289
*1454 FILLER_6_29
*1455 FILLER_6_3
*1456 FILLER_6_41
*1457 FILLER_6_53
*1458 FILLER_6_65
*1459 FILLER_6_77
*1460 FILLER_6_83
*1461 FILLER_6_85
*1462 FILLER_6_97
*1463 FILLER_7_133
*1464 FILLER_7_145
*1465 FILLER_7_157
*1466 FILLER_7_165
*1467 FILLER_7_169
*1468 FILLER_7_18
*1469 FILLER_7_181
*1470 FILLER_7_193
*1471 FILLER_7_205
*1472 FILLER_7_217
*1473 FILLER_7_223
*1474 FILLER_7_225
*1475 FILLER_7_237
*1476 FILLER_7_249
*1477 FILLER_7_261
*1478 FILLER_7_273
*1479 FILLER_7_279
*1480 FILLER_7_281
*1481 FILLER_7_293
*1482 FILLER_7_30
*1483 FILLER_7_42
*1484 FILLER_7_54
*1485 FILLER_7_57
*1486 FILLER_7_6
*1487 FILLER_7_69
*1488 FILLER_7_81
*1489 FILLER_7_93
*1490 FILLER_8_101
*1491 FILLER_8_128
*1492 FILLER_8_141
*1493 FILLER_8_153
*1494 FILLER_8_165
*1495 FILLER_8_177
*1496 FILLER_8_18
*1497 FILLER_8_189
*1498 FILLER_8_195
*1499 FILLER_8_197
*1500 FILLER_8_209
*1501 FILLER_8_221
*1502 FILLER_8_233
*1503 FILLER_8_245
*1504 FILLER_8_251
*1505 FILLER_8_253
*1506 FILLER_8_26
*1507 FILLER_8_265
*1508 FILLER_8_277
*1509 FILLER_8_289
*1510 FILLER_8_29
*1511 FILLER_8_41
*1512 FILLER_8_53
*1513 FILLER_8_6
*1514 FILLER_8_65
*1515 FILLER_8_77
*1516 FILLER_8_83
*1517 FILLER_8_85
*1518 FILLER_8_97
*1519 FILLER_9_105
*1520 FILLER_9_111
*1521 FILLER_9_122
*1522 FILLER_9_134
*1523 FILLER_9_146
*1524 FILLER_9_15
*1525 FILLER_9_158
*1526 FILLER_9_166
*1527 FILLER_9_169
*1528 FILLER_9_181
*1529 FILLER_9_193
*1530 FILLER_9_205
*1531 FILLER_9_217
*1532 FILLER_9_223
*1533 FILLER_9_225
*1534 FILLER_9_237
*1535 FILLER_9_249
*1536 FILLER_9_261
*1537 FILLER_9_27
*1538 FILLER_9_273
*1539 FILLER_9_279
*1540 FILLER_9_281
*1541 FILLER_9_3
*1542 FILLER_9_39
*1543 FILLER_9_51
*1544 FILLER_9_55
*1545 FILLER_9_57
*1546 FILLER_9_69
*1547 FILLER_9_81
*1548 FILLER_9_93
*1549 PHY_EDGE_ROW_0_Left_47
*1550 PHY_EDGE_ROW_0_Right_0
*1551 PHY_EDGE_ROW_10_Left_57
*1552 PHY_EDGE_ROW_10_Right_10
*1553 PHY_EDGE_ROW_11_Left_58
*1554 PHY_EDGE_ROW_11_Right_11
*1555 PHY_EDGE_ROW_12_Left_59
*1556 PHY_EDGE_ROW_12_Right_12
*1557 PHY_EDGE_ROW_13_Left_60
*1558 PHY_EDGE_ROW_13_Right_13
*1559 PHY_EDGE_ROW_14_Left_61
*1560 PHY_EDGE_ROW_14_Right_14
*1561 PHY_EDGE_ROW_15_Left_62
*1562 PHY_EDGE_ROW_15_Right_15
*1563 PHY_EDGE_ROW_16_Left_63
*1564 PHY_EDGE_ROW_16_Right_16
*1565 PHY_EDGE_ROW_17_Left_64
*1566 PHY_EDGE_ROW_17_Right_17
*1567 PHY_EDGE_ROW_18_Left_65
*1568 PHY_EDGE_ROW_18_Right_18
*1569 PHY_EDGE_ROW_19_Left_66
*1570 PHY_EDGE_ROW_19_Right_19
*1571 PHY_EDGE_ROW_1_Left_48
*1572 PHY_EDGE_ROW_1_Right_1
*1573 PHY_EDGE_ROW_20_Left_67
*1574 PHY_EDGE_ROW_20_Right_20
*1575 PHY_EDGE_ROW_21_Left_68
*1576 PHY_EDGE_ROW_21_Right_21
*1577 PHY_EDGE_ROW_22_Left_69
*1578 PHY_EDGE_ROW_22_Right_22
*1579 PHY_EDGE_ROW_23_Left_70
*1580 PHY_EDGE_ROW_23_Right_23
*1581 PHY_EDGE_ROW_24_Left_71
*1582 PHY_EDGE_ROW_24_Right_24
*1583 PHY_EDGE_ROW_25_Left_72
*1584 PHY_EDGE_ROW_25_Right_25
*1585 PHY_EDGE_ROW_26_Left_73
*1586 PHY_EDGE_ROW_26_Right_26
*1587 PHY_EDGE_ROW_27_Left_74
*1588 PHY_EDGE_ROW_27_Right_27
*1589 PHY_EDGE_ROW_28_Left_75
*1590 PHY_EDGE_ROW_28_Right_28
*1591 PHY_EDGE_ROW_29_Left_76
*1592 PHY_EDGE_ROW_29_Right_29
*1593 PHY_EDGE_ROW_2_Left_49
*1594 PHY_EDGE_ROW_2_Right_2