*SPEF "ieee 1481-1999"
*DESIGN "sipo"
*DATE "02:27:19 Saturday January 24, 2026"
*VENDOR "The OpenROAD Project"
*PROGRAM "OpenROAD"
*VERSION "edf00dff99f6c40d67a30c0e22a8191c5d2ed9d6"
*DESIGN_FLOW "NAME_SCOPE LOCAL" "PIN_CAP NONE"
*DIVIDER /
*DELIMITER :
*BUS_DELIMITER []
*T_UNIT 1 NS
*C_UNIT 1 PF
*R_UNIT 1 OHM
*L_UNIT 1 HENRY

*NAME_MAP
*1 byte_ready_o
*2 clk
*3 data_parallel_o[0]
*4 data_parallel_o[1]
*5 data_parallel_o[2]
*6 data_parallel_o[3]
*7 data_parallel_o[4]
*8 data_parallel_o[5]
*9 data_parallel_o[6]
*10 data_parallel_o[7]
*11 data_serial_i
*12 rst_n
*13 valid_serial_i
*16 _00_
*17 _01_
*18 _02_
*19 _03_
*20 _04_
*21 _05_
*22 _06_
*23 _07_
*24 _08_
*25 _09_
*26 _10_
*27 _11_
*28 _12_
*29 _13_
*30 clknet_0_clk
*31 clknet_1_0__leaf_clk
*32 clknet_1_1__leaf_clk
*33 count\[0\]
*34 count\[1\]
*35 count\[2\]
*36 net1
*37 net10
*38 net11
*39 net12
*40 net13
*41 net14
*42 net15
*43 net16
*44 net2
*45 net3
*46 net4
*47 net5
*48 net6
*49 net7
*50 net8
*51 net9
*52 ANTENNA_clkbuf_0_clk_A
*53 ANTENNA_input1_A
*54 ANTENNA_input2_A
*55 ANTENNA_input3_A
*56 FILLER_0_15
*57 FILLER_0_21
*58 FILLER_0_29
*59 FILLER_0_3
*60 FILLER_0_66
*61 FILLER_0_70
*62 FILLER_10_22
*63 FILLER_10_29
*64 FILLER_10_3
*65 FILLER_10_41
*66 FILLER_10_53
*67 FILLER_10_63
*68 FILLER_11_20
*69 FILLER_11_29
*70 FILLER_11_41
*71 FILLER_11_53
*72 FILLER_11_57
*73 FILLER_11_8
*74 FILLER_1_15
*75 FILLER_1_27
*76 FILLER_1_3
*77 FILLER_1_66
*78 FILLER_1_70
*79 FILLER_2_15
*80 FILLER_2_27
*81 FILLER_2_29
*82 FILLER_2_3
*83 FILLER_2_37
*84 FILLER_2_66
*85 FILLER_2_70
*86 FILLER_3_17
*87 FILLER_3_29
*88 FILLER_3_35
*89 FILLER_3_5
*90 FILLER_3_66
*91 FILLER_3_70
*92 FILLER_4_14
*93 FILLER_4_26
*94 FILLER_4_31
*95 FILLER_4_43
*96 FILLER_4_6
*97 FILLER_5_3
*98 FILLER_5_66
*99 FILLER_5_70
*100 FILLER_6_3
*101 FILLER_6_42
*102 FILLER_6_66
*103 FILLER_6_7
*104 FILLER_6_70
*105 FILLER_7_3
*106 FILLER_7_35
*107 FILLER_7_66
*108 FILLER_7_70
*109 FILLER_8_34
*110 FILLER_8_42
*111 FILLER_9_24
*112 FILLER_9_3
*113 FILLER_9_32
*114 FILLER_9_54
*115 FILLER_9_70
*116 PHY_EDGE_ROW_0_Left_12
*117 PHY_EDGE_ROW_0_Right_0
*118 PHY_EDGE_ROW_10_Left_22
*119 PHY_EDGE_ROW_10_Right_10
*120 PHY_EDGE_ROW_11_Left_23
*121 PHY_EDGE_ROW_11_Right_11
*122 PHY_EDGE_ROW_1_Left_13
*123 PHY_EDGE_ROW_1_Right_1
*124 PHY_EDGE_ROW_2_Left_14
*125 PHY_EDGE_ROW_2_Right_2
*126 PHY_EDGE_ROW_3_Left_15
*127 PHY_EDGE_ROW_3_Right_3
*128 PHY_EDGE_ROW_4_Left_16
*129 PHY_EDGE_ROW_4_Right_4
*130 PHY_EDGE_ROW_5_Left_17
*131 PHY_EDGE_ROW_5_Right_5
*132 PHY_EDGE_ROW_6_Left_18
*133 PHY_EDGE_ROW_6_Right_6
*134 PHY_EDGE_ROW_7_Left_19
*135 PHY_EDGE_ROW_7_Right_7
*136 PHY_EDGE_ROW_8_Left_20
*137 PHY_EDGE_ROW_8_Right_8
*138 PHY_EDGE_ROW_9_Left_21
*139 PHY_EDGE_ROW_9_Right_9
*140 TAP_TAPCELL_ROW_0_24
*141 TAP_TAPCELL_ROW_0_25
*142 TAP_TAPCELL_ROW_10_35
*143 TAP_TAPCELL_ROW_11_36
*144 TAP_TAPCELL_ROW_11_37
*145 TAP_TAPCELL_ROW_1_26
*146 TAP_TAPCELL_ROW_2_27
*147 TAP_TAPCELL_ROW_3_28
*148 TAP_TAPCELL_ROW_4_29
*149 TAP_TAPCELL_ROW_5_30
*150 TAP_TAPCELL_ROW_6_31
*151 TAP_TAPCELL_ROW_7_32
*152 TAP_TAPCELL_ROW_8_33
*153 TAP_TAPCELL_ROW_9_34
*154 _14_
*155 _15_
*156 _16_
*157 _17_
*158 _18_
*159 _19_
*160 _20_
*161 _21_
*162 _22_
*163 _23_
*164 _24_
*165 _25_
*166 _26_
*167 _27_
*168 _28_
*169 _29_
*170 _30_
*171 _31_
*172 _32_
*173 _33_
*174 _34_
*175 _35_
*176 _36_
*177 _37_
*178 _38_
*179 _39_
*180 clkbuf_0_clk
*181 clkbuf_1_0__f_clk
*182 clkbuf_1_1__f_clk
*183 fanout13
*184 fanout14
*185 fanout15
*186 fanout16
*187 input1
*188 input2
*189 input3
*190 output10
*191 output11
*192 output12
*193 output4
*194 output5
*195 output6
*196 output7
*197 output8
*198 output9

*PORTS
byte_ready_o O
clk I
data_parallel_o[0] O
data_parallel_o[1] O
data_parallel_o[2] O
data_parallel_o[3] O
data_parallel_o[4] O
data_parallel_o[5] O
data_parallel_o[6] O
data_parallel_o[7] O
data_serial_i I
rst_n I
valid_serial_i I

*D_NET *1 0.00130715
*CONN
*P byte_ready_o O
*I *193:X O *D sky130_fd_sc_hd__buf_4
*CAP
1 byte_ready_o 0.000653575
2 *193:X 0.000653575
3 byte_ready_o data_parallel_o[7] 0
*RES
1 *193:X byte_ready_o 10.1579 
*END

*D_NET *2 0.00331206
*CONN
*P clk I
*I *180:A I *D sky130_fd_sc_hd__clkbuf_16
*I *52:DIODE I *D sky130_fd_sc_hd__diode_2
*CAP
1 clk 0.00140372
2 *180:A 0.00013105
3 *52:DIODE 0
4 *2:9 0.00153477
5 *180:A *178:RESET_B 5.53249e-06
6 *180:A *33:25 1.83847e-05
7 *180:A *41:34 0.000101317
8 *180:A *43:16 2.75229e-05
9 *180:A *43:18 0
10 *180:A *44:10 8.97564e-05
11 *2:9 *160:A0 0
12 *2:9 *195:A 0
13 *2:9 *196:A 0
14 *2:9 *43:18 0
15 *2:9 *43:24 0
16 *2:9 *47:8 0
17 *2:9 *48:10 0
*RES
1 clk *2:9 13.9817 
2 *2:9 *52:DIODE 3.6 
3 *2:9 *180:A 6.96 
*END

*D_NET *3 0.00410539
*CONN
*P data_parallel_o[0] O
*I *194:X O *D sky130_fd_sc_hd__buf_4
*CAP
1 data_parallel_o[0] 0.00161571
2 *194:X 0.00161571
3 data_parallel_o[0] data_parallel_o[1] 2.32724e-05
4 data_parallel_o[0] data_parallel_o[2] 0.000142987
5 data_parallel_o[0] *160:A0 0.000123225
6 data_parallel_o[0] *160:A1 4.82919e-05
7 data_parallel_o[0] *160:S 4.47209e-05
8 data_parallel_o[0] *172:D 9.47707e-05
9 data_parallel_o[0] *194:A 0.000352997
10 data_parallel_o[0] *196:A 4.36954e-05
*RES
1 *194:X data_parallel_o[0] 25.4083 
*END

*D_NET *4 0.00296641
*CONN
*P data_parallel_o[1] O
*I *195:X O *D sky130_fd_sc_hd__buf_4
*CAP
1 data_parallel_o[1] 0.000966119
2 *195:X 0.000966119
3 data_parallel_o[1] data_parallel_o[2] 0
4 data_parallel_o[1] *160:A1 0
5 data_parallel_o[1] *161:S 0.000158066
6 data_parallel_o[1] *173:D 8.88772e-05
7 data_parallel_o[1] *195:A 0.000124473
8 data_parallel_o[1] *49:6 4.78564e-05
9 data_parallel_o[1] *49:25 0.000591629
10 data_parallel_o[0] data_parallel_o[1] 2.32724e-05
*RES
1 *195:X data_parallel_o[1] 20.4768 
*END

*D_NET *5 0.00334748
*CONN
*P data_parallel_o[2] O
*I *196:X O *D sky130_fd_sc_hd__buf_4
*CAP
1 data_parallel_o[2] 0.00137059
2 *196:X 0.00137059
3 data_parallel_o[2] data_parallel_o[3] 0
4 data_parallel_o[2] *160:A0 1.34594e-05
5 data_parallel_o[2] *160:A1 0
6 data_parallel_o[2] *160:S 9.27495e-05
7 data_parallel_o[2] *172:D 0.000170065
8 data_parallel_o[2] *194:A 6.60042e-05
9 data_parallel_o[2] *196:A 0.000121027
10 data_parallel_o[2] *48:29 0
11 data_parallel_o[0] data_parallel_o[2] 0.000142987
12 data_parallel_o[1] data_parallel_o[2] 0
*RES
1 *196:X data_parallel_o[2] 20.1848 
*END

*D_NET *6 0.00236388
*CONN
*P data_parallel_o[3] O
*I *197:X O *D sky130_fd_sc_hd__buf_4
*CAP
1 data_parallel_o[3] 0.00110231
2 *197:X 0.00110231
3 data_parallel_o[3] data_parallel_o[4] 0
4 data_parallel_o[3] *173:D 0
5 data_parallel_o[3] *175:RESET_B 4.40028e-05
6 data_parallel_o[3] *197:A 8.77516e-05
7 data_parallel_o[3] *32:29 0
8 data_parallel_o[3] *43:18 0
9 data_parallel_o[3] *50:6 2.75145e-05
10 data_parallel_o[2] data_parallel_o[3] 0
*RES
1 *197:X data_parallel_o[3] 10.7319 
*END

*D_NET *7 0.00163085
*CONN
*P data_parallel_o[4] O
*I *198:X O *D sky130_fd_sc_hd__buf_4
*CAP
1 data_parallel_o[4] 0.000815423
2 *198:X 0.000815423
3 data_parallel_o[4] data_parallel_o[5] 0
4 data_parallel_o[4] *40:18 0
5 data_parallel_o[3] data_parallel_o[4] 0
*RES
1 *198:X data_parallel_o[4] 6.66057 
*END

*D_NET *8 0.000540678
*CONN
*P data_parallel_o[5] O
*I *190:X O *D sky130_fd_sc_hd__buf_4
*CAP
1 data_parallel_o[5] 0.000270339
2 *190:X 0.000270339
3 data_parallel_o[5] data_parallel_o[6] 0
4 data_parallel_o[5] *37:19 0
5 data_parallel_o[4] data_parallel_o[5] 0
*RES
1 *190:X data_parallel_o[5] 5.2183 
*END

*D_NET *9 0.000554157
*CONN
*P data_parallel_o[6] O
*I *191:X O *D sky130_fd_sc_hd__buf_4
*CAP
1 data_parallel_o[6] 0.000277078
2 *191:X 0.000277078
3 data_parallel_o[6] data_parallel_o[7] 0
4 data_parallel_o[5] data_parallel_o[6] 0
*RES
1 *191:X data_parallel_o[6] 5.2183 
*END

*D_NET *10 0.000619923
*CONN
*P data_parallel_o[7] O
*I *192:X O *D sky130_fd_sc_hd__buf_4
*CAP
1 data_parallel_o[7] 0.000309962
2 *192:X 0.000309962
3 byte_ready_o data_parallel_o[7] 0
4 data_parallel_o[6] data_parallel_o[7] 0
*RES
1 *192:X data_parallel_o[7] 5.7283 
*END

*D_NET *11 0.000658618
*CONN
*P data_serial_i I
*I *53:DIODE I *D sky130_fd_sc_hd__diode_2
*I *187:A I *D sky130_fd_sc_hd__clkbuf_1
*CAP
1 data_serial_i 0.000228299
2 *53:DIODE 5.18298e-05
3 *187:A 0
4 *11:13 0.000280129
5 *53:DIODE *179:CLK 8.8266e-05
6 *11:13 *179:CLK 1.00941e-05
*RES
1 data_serial_i *11:13 3.8935 
2 *11:13 *187:A 1.6 
3 *11:13 *53:DIODE 2.74 
*END

*D_NET *12 0.000607226
*CONN
*P rst_n I
*I *188:A I *D sky130_fd_sc_hd__buf_1
*I *54:DIODE I *D sky130_fd_sc_hd__diode_2
*CAP
1 rst_n 0.000202146
2 *188:A 0.000101467
3 *54:DIODE 0
4 *12:9 0.000303613
*RES
1 rst_n *12:9 1.24677 
2 *12:9 *54:DIODE 3.6 
3 *12:9 *188:A 5.235 
*END

*D_NET *13 0.00105742
*CONN
*P valid_serial_i I
*I *55:DIODE I *D sky130_fd_sc_hd__diode_2
*I *189:A I *D sky130_fd_sc_hd__clkbuf_1
*CAP
1 valid_serial_i 0.000451634
2 *55:DIODE 6.20584e-05
3 *189:A 0
4 *13:13 0.000513692
5 *55:DIODE *184:A 3.00381e-05
*RES
1 valid_serial_i *13:13 7.7185 
2 *13:13 *189:A 1.6 
3 *13:13 *55:DIODE 2.74 
*END

*D_NET *16 0.000825498
*CONN
*I *168:D I *D sky130_fd_sc_hd__dfrtp_1
*I *155:X O *D sky130_fd_sc_hd__and2_1
*CAP
1 *168:D 0.000286511
2 *155:X 0.000286511
3 *168:D *168:CLK 9.71423e-05
4 *168:D *178:RESET_B 0.000137574
5 *168:D *39:25 1.77595e-05
*RES
1 *155:X *168:D 11.76 
*END

*D_NET *17 0.000376054
*CONN
*I *169:D I *D sky130_fd_sc_hd__dfrtp_1
*I *156:X O *D sky130_fd_sc_hd__xor2_1
*CAP
1 *169:D 0.000143894
2 *156:X 0.000143894
3 *169:D *44:10 8.8266e-05
*RES
1 *156:X *169:D 9.375 
*END

*D_NET *18 0.000427059
*CONN
*I *170:D I *D sky130_fd_sc_hd__dfrtp_1
*I *158:Y O *D sky130_fd_sc_hd__nor2_1
*CAP
1 *170:D 0.00016284
2 *158:Y 0.00016284
3 *170:D *169:CLK 3.00381e-05
4 *170:D *31:12 7.13405e-05
*RES
1 *158:Y *170:D 9.48375 
*END

*D_NET *19 0.000463503
*CONN
*I *171:D I *D sky130_fd_sc_hd__dfrtp_1
*I *159:X O *D sky130_fd_sc_hd__xor2_1
*CAP
1 *171:D 0.000194961
2 *159:X 0.000194961
3 *171:D *159:A 0
4 *171:D *179:CLK 5.83121e-06
5 *171:D *31:12 0
6 *171:D *31:36 6.77501e-05
*RES
1 *159:X *171:D 10.23 
*END

*D_NET *20 0.000379802
*CONN
*I *172:D I *D sky130_fd_sc_hd__dfrtp_1
*I *160:X O *D sky130_fd_sc_hd__mux2_1
*CAP
1 *172:D 5.7483e-05
2 *160:X 5.7483e-05
3 data_parallel_o[0] *172:D 9.47707e-05
4 data_parallel_o[2] *172:D 0.000170065
*RES
1 *160:X *172:D 5.495 
*END

*D_NET *21 0.00107168
*CONN
*I *173:D I *D sky130_fd_sc_hd__dfrtp_1
*I *161:X O *D sky130_fd_sc_hd__mux2_1
*CAP
1 *173:D 0.000364706
2 *161:X 0.000364706
3 *173:D *174:D 0.000253391
4 *173:D *32:29 0
5 data_parallel_o[1] *173:D 8.88772e-05
6 data_parallel_o[3] *173:D 0
*RES
1 *161:X *173:D 13.245 
*END

*D_NET *22 0.000920706
*CONN
*I *174:D I *D sky130_fd_sc_hd__dfrtp_1
*I *162:X O *D sky130_fd_sc_hd__mux2_1
*CAP
1 *174:D 0.000261292
2 *162:X 0.000261292
3 *174:D *32:25 4.13003e-05
4 *174:D *32:29 0.000103431
5 *173:D *174:D 0.000253391
*RES
1 *162:X *174:D 12.195 
*END

*D_NET *23 0.00118509
*CONN
*I *175:D I *D sky130_fd_sc_hd__dfrtp_1
*I *163:X O *D sky130_fd_sc_hd__mux2_1
*CAP
1 *175:D 0.000273528
2 *163:X 0.000273528
3 *175:D *162:A0 2.60908e-05
4 *175:D *163:A0 0.00024894
5 *175:D *175:CLK 5.72004e-05
6 *175:D *32:8 0.000104282
7 *175:D *32:56 2.25075e-05
8 *175:D *50:21 0.000179015
*RES
1 *163:X *175:D 13.8 
*END

*D_NET *24 0.00103611
*CONN
*I *176:D I *D sky130_fd_sc_hd__dfrtp_1
*I *164:X O *D sky130_fd_sc_hd__mux2_1
*CAP
1 *176:D 0.00029553
2 *164:X 0.00029553
3 *176:D *176:RESET_B 4.70393e-05
4 *176:D *181:A 2.75145e-05
5 *176:D *42:22 0.000333203
6 *176:D *51:6 3.72916e-05
*RES
1 *164:X *176:D 9.875 
*END

*D_NET *25 0.00150672
*CONN
*I *177:D I *D sky130_fd_sc_hd__dfrtp_1
*I *165:X O *D sky130_fd_sc_hd__mux2_1
*CAP
1 *177:D 0.000573466
2 *165:X 0.000573466
3 *177:D *168:RESET_B 0.000119549
4 *177:D *177:RESET_B 4.99619e-05
5 *177:D *178:CLK 0
6 *177:D *32:56 2.75145e-05
7 *177:D *41:72 0.000162762
8 *177:D *42:16 0
9 *177:D *42:48 0
*RES
1 *165:X *177:D 17.145 
*END

*D_NET *26 0.000885941
*CONN
*I *178:D I *D sky130_fd_sc_hd__dfrtp_1
*I *166:X O *D sky130_fd_sc_hd__mux2_1
*CAP
1 *178:D 0.000299642
2 *166:X 0.000299642
3 *178:D *168:RESET_B 7.23602e-05
4 *178:D *178:RESET_B 0.000140716
5 *178:D *193:A 7.35813e-05
*RES
1 *166:X *178:D 11.4338 
*END

*D_NET *27 0.000362062
*CONN
*I *179:D I *D sky130_fd_sc_hd__dfrtp_1
*I *167:X O *D sky130_fd_sc_hd__mux2_1
*CAP
1 *179:D 0.000110747
2 *167:X 0.000110747
3 *179:D *167:A0 0
4 *179:D *167:A1 0.000140568
*RES
1 *167:X *179:D 9.12 
*END

*D_NET *28 0.00268863
*CONN
*I *155:B I *D sky130_fd_sc_hd__and2_1
*I *158:A I *D sky130_fd_sc_hd__nor2_1
*I *159:B I *D sky130_fd_sc_hd__xor2_1
*I *154:X O *D sky130_fd_sc_hd__and3_1
*CAP
1 *155:B 0.000127715
2 *158:A 0.00022529
3 *159:B 0
4 *154:X 9.70794e-05
5 *28:14 0.000362961
6 *28:10 0.000362467
7 *155:B *168:CLK 0
8 *155:B *178:RESET_B 0.000116957
9 *158:A *158:B 0.000102514
10 *28:10 *158:B 4.75576e-05
11 *28:10 *178:RESET_B 4.83324e-05
12 *28:10 *34:6 4.82863e-05
13 *28:14 *158:B 0.000650898
14 *28:14 *31:56 0.000498575
*RES
1 *154:X *28:10 5.685 
2 *28:10 *28:14 7.97 
3 *28:14 *159:B 1.6 
4 *28:14 *158:A 5.44 
5 *28:10 *155:B 6.195 
*END

*D_NET *29 0.00227526
*CONN
*I *158:B I *D sky130_fd_sc_hd__nor2_1
*I *157:Y O *D sky130_fd_sc_hd__a21oi_1
*CAP
1 *158:B 0.000516734
2 *157:Y 0.000516734
3 *158:B *157:A2 5.06989e-05
4 *158:B *31:56 4.21973e-05
5 *158:B *42:22 0.000347922
6 *158:A *158:B 0.000102514
7 *28:10 *158:B 4.75576e-05
8 *28:14 *158:B 0.000650898
*RES
1 *157:Y *158:B 18.465 
*END

*D_NET *30 0.00218073
*CONN
*I *181:A I *D sky130_fd_sc_hd__clkbuf_16
*I *182:A I *D sky130_fd_sc_hd__clkbuf_16
*I *180:X O *D sky130_fd_sc_hd__clkbuf_16
*CAP
1 *181:A 0.000386195
2 *182:A 0.000394145
3 *180:X 0.000139509
4 *30:8 0.000919849
5 *181:A *157:A2 0
6 *181:A *185:A 4.5783e-05
7 *181:A *31:56 8.52845e-05
8 *181:A *42:22 3.18659e-05
9 *182:A *185:A 4.43871e-06
10 *182:A *43:18 0.000146149
11 *176:D *181:A 2.75145e-05
*RES
1 *180:X *30:8 5.085 
2 *30:8 *182:A 10.41 
3 *30:8 *181:A 9.705 
*END

*D_NET *31 0.00471938
*CONN
*I *176:CLK I *D sky130_fd_sc_hd__dfrtp_1
*I *168:CLK I *D sky130_fd_sc_hd__dfrtp_1
*I *171:CLK I *D sky130_fd_sc_hd__dfrtp_1
*I *179:CLK I *D sky130_fd_sc_hd__dfrtp_1
*I *170:CLK I *D sky130_fd_sc_hd__dfrtp_1
*I *169:CLK I *D sky130_fd_sc_hd__dfrtp_1
*I *181:X O *D sky130_fd_sc_hd__clkbuf_16
*CAP
1 *176:CLK 0
2 *168:CLK 0.000456575
3 *171:CLK 0
4 *179:CLK 0.000163925
5 *170:CLK 0
6 *169:CLK 0.000175712
7 *181:X 0
8 *31:56 0.000756233
9 *31:36 0.00042861
10 *31:12 0.000471137
11 *31:6 0.000560109
12 *31:4 0.000299658
13 *168:CLK *178:RESET_B 0
14 *168:CLK *39:25 1.17262e-05
15 *179:CLK *167:A1 0.000120186
16 *31:12 *159:A 0
17 *31:12 *41:21 6.95505e-05
18 *31:36 *159:A 8.03844e-05
19 *31:36 *41:21 7.25036e-05
20 *31:56 *42:22 5.65512e-05
21 *53:DIODE *179:CLK 8.8266e-05
22 *155:B *168:CLK 0
23 *158:B *31:56 4.21973e-05
24 *168:D *168:CLK 9.71423e-05
25 *170:D *169:CLK 3.00381e-05
26 *170:D *31:12 7.13405e-05
27 *171:D *179:CLK 5.83121e-06
28 *171:D *31:12 0
29 *171:D *31:36 6.77501e-05
30 *181:A *31:56 8.52845e-05
31 *11:13 *179:CLK 1.00941e-05
32 *28:14 *31:56 0.000498575
*RES
1 *181:X *31:4 1.6 
2 *31:4 *31:6 2 
3 *31:6 *31:12 7.355 
4 *31:12 *169:CLK 8.54 
5 *31:12 *170:CLK 1.6 
6 *31:6 *31:36 7.355 
7 *31:36 *179:CLK 8.975 
8 *31:36 *171:CLK 1.6 
9 *31:4 *31:56 6.66 
10 *31:56 *168:CLK 12.02 
11 *31:56 *176:CLK 1.6 
*END

*D_NET *32 0.00430803
*CONN
*I *177:CLK I *D sky130_fd_sc_hd__dfrtp_1
*I *178:CLK I *D sky130_fd_sc_hd__dfrtp_1
*I *173:CLK I *D sky130_fd_sc_hd__dfrtp_1
*I *174:CLK I *D sky130_fd_sc_hd__dfrtp_1
*I *172:CLK I *D sky130_fd_sc_hd__dfrtp_1
*I *175:CLK I *D sky130_fd_sc_hd__dfrtp_1
*I *182:X O *D sky130_fd_sc_hd__clkbuf_16
*CAP
1 *177:CLK 0
2 *178:CLK 0.000289491
3 *173:CLK 0
4 *174:CLK 0
5 *172:CLK 0.000170916
6 *175:CLK 7.77769e-05
7 *182:X 0
8 *32:56 0.000892156
9 *32:29 0.000395704
10 *32:25 0.000491989
11 *32:8 0.000493588
12 *32:6 0.000751275
13 *172:CLK *160:S 0
14 *172:CLK *40:22 0
15 *178:CLK *178:RESET_B 2.937e-05
16 *32:25 *162:S 0.000155497
17 *32:29 *40:20 0
18 *32:29 *40:22 0
19 *32:56 *163:A0 0
20 *32:56 *177:RESET_B 0.000130465
21 *32:56 *37:10 7.35729e-05
22 *32:56 *40:18 0
23 *32:56 *51:12 0
24 data_parallel_o[3] *32:29 0
25 *173:D *32:29 0
26 *174:D *32:25 4.13003e-05
27 *174:D *32:29 0.000103431
28 *175:D *175:CLK 5.72004e-05
29 *175:D *32:8 0.000104282
30 *175:D *32:56 2.25075e-05
31 *177:D *178:CLK 0
32 *177:D *32:56 2.75145e-05
*RES
1 *182:X *32:6 3.6 
2 *32:6 *32:8 3.165 
3 *32:8 *175:CLK 5.235 
4 *32:8 *32:25 6.275 
5 *32:25 *32:29 6.185 
6 *32:29 *172:CLK 5.745 
7 *32:29 *174:CLK 3.6 
8 *32:25 *173:CLK 1.6 
9 *32:6 *32:56 12.335 
10 *32:56 *178:CLK 10.19 
11 *32:56 *177:CLK 1.6 
*END

*D_NET *33 0.00232486
*CONN
*I *157:A1 I *D sky130_fd_sc_hd__a21oi_1
*I *154:A I *D sky130_fd_sc_hd__and3_1
*I *156:A I *D sky130_fd_sc_hd__xor2_1
*I *169:Q O *D sky130_fd_sc_hd__dfrtp_1
*CAP
1 *157:A1 6.2637e-05
2 *154:A 0
3 *156:A 0.00029979
4 *169:Q 0
5 *33:25 0.000432057
6 *33:4 0.00066921
7 *156:A *156:B 0.000318091
8 *156:A *41:21 0
9 *156:A *41:34 0.000189845
10 *156:A *44:10 7.32509e-05
11 *157:A1 *157:A2 4.40028e-05
12 *157:A1 *157:B1 4.77757e-05
13 *33:25 *157:A2 4.43871e-06
14 *33:25 *169:RESET_B 3.64722e-05
15 *33:25 *41:34 0.000114753
16 *33:25 *43:16 1.41518e-05
17 *33:25 *43:18 0
18 *180:A *33:25 1.83847e-05
*RES
1 *169:Q *33:4 1.6 
2 *33:4 *156:A 12.17 
3 *33:4 *33:25 9.265 
4 *33:25 *154:A 1.6 
5 *33:25 *157:A1 2.74 
*END

*D_NET *34 0.000656567
*CONN
*I *154:B I *D sky130_fd_sc_hd__and3_1
*I *157:B1 I *D sky130_fd_sc_hd__a21oi_1
*I *170:Q O *D sky130_fd_sc_hd__dfrtp_1
*CAP
1 *154:B 0
2 *157:B1 9.9984e-05
3 *170:Q 0.00013085
4 *34:6 0.000230834
5 *157:B1 *154:C 1.08758e-05
6 *157:B1 *157:A2 8.64421e-05
7 *34:6 *154:C 1.51894e-06
8 *157:A1 *157:B1 4.77757e-05
9 *28:10 *34:6 4.82863e-05
*RES
1 *170:Q *34:6 3.085 
2 *34:6 *157:B1 3.61 
3 *34:6 *154:B 1.6 
*END

*D_NET *35 0.00144535
*CONN
*I *155:A I *D sky130_fd_sc_hd__and2_1
*I *159:A I *D sky130_fd_sc_hd__xor2_1
*I *171:Q O *D sky130_fd_sc_hd__dfrtp_1
*CAP
1 *155:A 9.09322e-05
2 *159:A 0.000572443
3 *171:Q 0
4 *35:4 0.000663375
5 *155:A *178:RESET_B 3.45679e-05
6 *159:A *178:RESET_B 3.64998e-06
7 *171:D *159:A 0
8 *31:12 *159:A 0
9 *31:36 *159:A 8.03844e-05
*RES
1 *171:Q *35:4 1.6 
2 *35:4 *159:A 12.26 
3 *35:4 *155:A 3.01 
*END

*D_NET *36 0.000991378
*CONN
*I *167:A1 I *D sky130_fd_sc_hd__mux2_1
*I *187:X O *D sky130_fd_sc_hd__clkbuf_1
*CAP
1 *167:A1 0.000340331
2 *187:X 0.000340331
3 *167:A1 *167:A0 4.99619e-05
4 *179:CLK *167:A1 0.000120186
5 *179:D *167:A1 0.000140568
*RES
1 *187:X *167:A1 13.575 
*END

*D_NET *37 0.00208441
*CONN
*I *165:A0 I *D sky130_fd_sc_hd__mux2_1
*I *190:A I *D sky130_fd_sc_hd__buf_4
*I *164:A1 I *D sky130_fd_sc_hd__mux2_1
*I *177:Q O *D sky130_fd_sc_hd__dfrtp_1
*CAP
1 *165:A0 0.000217589
2 *190:A 7.01692e-05
3 *164:A1 0
4 *177:Q 0.000179726
5 *37:19 0.00034552
6 *37:10 0.000237487
7 *165:A0 *165:A1 0.000118081
8 *165:A0 *165:S 0.000176647
9 *165:A0 *38:10 0.000136877
10 *165:A0 *38:23 0.00010596
11 *165:A0 *40:12 0.000155176
12 *190:A *38:10 2.11084e-05
13 *37:10 *40:12 7.5416e-05
14 *37:10 *51:12 6.10941e-05
15 *37:19 *40:12 0.000109989
16 data_parallel_o[5] *37:19 0
17 *32:56 *37:10 7.35729e-05
*RES
1 *177:Q *37:10 6.885 
2 *37:10 *164:A1 3.6 
3 *37:10 *37:19 1.38 
4 *37:19 *190:A 4.74 
5 *37:19 *165:A0 9.015 
*END

*D_NET *38 0.00135116
*CONN
*I *191:A I *D sky130_fd_sc_hd__buf_4
*I *165:A1 I *D sky130_fd_sc_hd__mux2_1
*I *166:A0 I *D sky130_fd_sc_hd__mux2_1
*I *178:Q O *D sky130_fd_sc_hd__dfrtp_1
*CAP
1 *191:A 8.67955e-05
2 *165:A1 0.000127285
3 *166:A0 3.65319e-05
4 *178:Q 0.000112714
5 *38:23 0.000281653
6 *38:10 0.000216818
7 *166:A0 *166:A1 2.49909e-05
8 *166:A0 *41:72 8.23457e-05
9 *165:A0 *165:A1 0.000118081
10 *165:A0 *38:10 0.000136877
11 *165:A0 *38:23 0.00010596
12 *190:A *38:10 2.11084e-05
*RES
1 *178:Q *38:10 5.685 
2 *38:10 *166:A0 4.395 
3 *38:10 *38:23 3.38 
4 *38:23 *165:A1 3.085 
5 *38:23 *191:A 3.01 
*END

*D_NET *39 0.0046969
*CONN
*I *166:A1 I *D sky130_fd_sc_hd__mux2_1
*I *192:A I *D sky130_fd_sc_hd__buf_4
*I *167:A0 I *D sky130_fd_sc_hd__mux2_1
*I *179:Q O *D sky130_fd_sc_hd__dfrtp_1
*CAP
1 *166:A1 6.72967e-05
2 *192:A 0.000248338
3 *167:A0 0.00039443
4 *179:Q 7.39714e-05
5 *39:25 0.00139867
6 *39:8 0.00155144
7 *166:A1 *41:72 9.80032e-06
8 *167:A0 *179:RESET_B 0.000117787
9 *192:A *165:S 0.000136877
10 *192:A *193:A 0.000316799
11 *39:8 *179:RESET_B 5.83121e-06
12 *39:25 *168:RESET_B 0.000115217
13 *39:25 *41:72 0.000156006
14 *166:A0 *166:A1 2.49909e-05
15 *167:A1 *167:A0 4.99619e-05
16 *168:CLK *39:25 1.17262e-05
17 *168:D *39:25 1.77595e-05
18 *179:D *167:A0 0
*RES
1 *179:Q *39:8 2.92 
2 *39:8 *167:A0 10.475 
3 *39:8 *39:25 12.525 
4 *39:25 *192:A 11.105 
5 *39:25 *166:A1 2.395 
*END

*D_NET *40 0.00519754
*CONN
*I *165:S I *D sky130_fd_sc_hd__mux2_1
*I *164:S I *D sky130_fd_sc_hd__mux2_1
*I *163:S I *D sky130_fd_sc_hd__mux2_1
*I *162:S I *D sky130_fd_sc_hd__mux2_1
*I *161:S I *D sky130_fd_sc_hd__mux2_1
*I *160:S I *D sky130_fd_sc_hd__mux2_1
*I *183:X O *D sky130_fd_sc_hd__clkbuf_2
*CAP
1 *165:S 9.71582e-05
2 *164:S 5.55055e-05
3 *163:S 0
4 *162:S 6.23202e-05
5 *161:S 5.96302e-05
6 *160:S 0.000134135
7 *183:X 0.00010556
8 *40:22 0.000373825
9 *40:20 0.000423309
10 *40:18 0.000454208
11 *40:12 0.000488496
12 *40:8 0.00036243
13 *160:S *160:A0 8.65905e-05
14 *160:S *160:A1 5.65627e-05
15 *160:S *49:25 4.9968e-05
16 *161:S *161:A1 3.03775e-05
17 *162:S *162:A0 4.66108e-05
18 *162:S *162:A1 1.19928e-05
19 *164:S *164:A0 3.64998e-06
20 *165:S *168:RESET_B 0
21 *165:S *193:A 3.50033e-05
22 *40:8 *183:A 4.60584e-05
23 *40:8 *41:72 0.000119762
24 *40:12 *168:RESET_B 0
25 *40:12 *51:12 7.5416e-05
26 *40:18 *163:A0 1.70935e-05
27 *40:18 *164:A0 1.19928e-05
28 *40:18 *42:16 0
29 *40:18 *42:48 0
30 *40:18 *51:6 1.56428e-05
31 *40:18 *51:12 0.000292745
32 *40:20 *162:A0 3.09233e-05
33 *40:20 *163:A0 0.000159627
34 *40:20 *50:21 2.68721e-05
35 *40:22 *162:A0 0.000281855
36 *40:22 *49:25 7.70828e-05
37 data_parallel_o[0] *160:S 4.47209e-05
38 data_parallel_o[1] *161:S 0.000158066
39 data_parallel_o[2] *160:S 9.27495e-05
40 data_parallel_o[4] *40:18 0
41 *165:A0 *165:S 0.000176647
42 *165:A0 *40:12 0.000155176
43 *172:CLK *160:S 0
44 *172:CLK *40:22 0
45 *192:A *165:S 0.000136877
46 *32:25 *162:S 0.000155497
47 *32:29 *40:20 0
48 *32:29 *40:22 0
49 *32:56 *40:18 0
50 *37:10 *40:12 7.5416e-05
51 *37:19 *40:12 0.000109989
*RES
1 *183:X *40:8 5.43 
2 *40:8 *40:12 5.93 
3 *40:12 *40:18 6.98 
4 *40:18 *40:20 4.185 
5 *40:20 *40:22 4.185 
6 *40:22 *160:S 6.975 
7 *40:22 *161:S 5.085 
8 *40:20 *162:S 5.085 
9 *40:18 *163:S 3.6 
10 *40:12 *164:S 2.395 
11 *40:8 *165:S 6.255 
*END

*D_NET *41 0.00755925
*CONN
*I *183:A I *D sky130_fd_sc_hd__clkbuf_2
*I *166:S I *D sky130_fd_sc_hd__mux2_1
*I *157:A2 I *D sky130_fd_sc_hd__a21oi_1
*I *154:C I *D sky130_fd_sc_hd__and3_1
*I *156:B I *D sky130_fd_sc_hd__xor2_1
*I *167:S I *D sky130_fd_sc_hd__mux2_1
*I *184:X O *D sky130_fd_sc_hd__clkbuf_2
*CAP
1 *183:A 8.98965e-05
2 *166:S 0
3 *157:A2 0.000169747
4 *154:C 1.1412e-05
5 *156:B 3.89538e-05
6 *167:S 0.0001463
7 *184:X 0
8 *41:72 0.001074
9 *41:34 0.000495115
10 *41:21 0.00094318
11 *41:6 0.000767582
12 *41:4 0.00101512
13 *156:B *44:10 0.000316415
14 *157:A2 *178:RESET_B 0
15 *41:21 *170:RESET_B 5.92849e-05
16 *41:21 *178:RESET_B 0
17 *41:21 *179:RESET_B 9.36786e-05
18 *41:21 *42:31 8.39594e-05
19 *41:21 *44:10 0
20 *41:34 *178:RESET_B 0
21 *41:34 *43:18 0
22 *41:34 *44:10 0.000275553
23 *41:72 *168:RESET_B 0.000100139
24 *41:72 *193:A 0.000238137
25 *156:A *156:B 0.000318091
26 *156:A *41:21 0
27 *156:A *41:34 0.000189845
28 *157:A1 *157:A2 4.40028e-05
29 *157:B1 *154:C 1.08758e-05
30 *157:B1 *157:A2 8.64421e-05
31 *158:B *157:A2 5.06989e-05
32 *166:A0 *41:72 8.23457e-05
33 *166:A1 *41:72 9.80032e-06
34 *177:D *41:72 0.000162762
35 *180:A *41:34 0.000101317
36 *181:A *157:A2 0
37 *31:12 *41:21 6.95505e-05
38 *31:36 *41:21 7.25036e-05
39 *33:25 *157:A2 4.43871e-06
40 *33:25 *41:34 0.000114753
41 *34:6 *154:C 1.51894e-06
42 *39:25 *41:72 0.000156006
43 *40:8 *183:A 4.60584e-05
44 *40:8 *41:72 0.000119762
*RES
1 *184:X *41:4 1.6 
2 *41:4 *41:6 0.45 
3 *41:6 *167:S 3.7 
4 *41:6 *41:21 15.835 
5 *41:21 *156:B 4.465 
6 *41:21 *41:34 9.575 
7 *41:34 *154:C 3.765 
8 *41:34 *157:A2 6.855 
9 *41:4 *41:72 21.145 
10 *41:72 *166:S 1.6 
11 *41:72 *183:A 3.445 
*END

*D_NET *42 0.0060282
*CONN
*I *168:RESET_B I *D sky130_fd_sc_hd__dfrtp_1
*I *176:RESET_B I *D sky130_fd_sc_hd__dfrtp_1
*I *179:RESET_B I *D sky130_fd_sc_hd__dfrtp_1
*I *171:RESET_B I *D sky130_fd_sc_hd__dfrtp_1
*I *170:RESET_B I *D sky130_fd_sc_hd__dfrtp_1
*I *177:RESET_B I *D sky130_fd_sc_hd__dfrtp_1
*I *185:X O *D sky130_fd_sc_hd__clkbuf_2
*CAP
1 *168:RESET_B 0.000255698
2 *176:RESET_B 4.26218e-05
3 *179:RESET_B 0.000162503
4 *171:RESET_B 0
5 *170:RESET_B 7.53541e-05
6 *177:RESET_B 0.000550779
7 *185:X 0.000426528
8 *42:48 0.000365841
9 *42:31 0.0002985
10 *42:22 0.00102843
11 *42:16 0.00100885
12 *168:RESET_B *51:12 0
13 *170:RESET_B *178:RESET_B 0
14 *177:RESET_B *185:A 4.82863e-05
15 *179:RESET_B *178:RESET_B 0
16 *42:31 *178:RESET_B 0
17 *42:48 *51:12 0
18 *158:B *42:22 0.000347922
19 *165:S *168:RESET_B 0
20 *167:A0 *179:RESET_B 0.000117787
21 *176:D *176:RESET_B 4.70393e-05
22 *176:D *42:22 0.000333203
23 *177:D *168:RESET_B 0.000119549
24 *177:D *177:RESET_B 4.99619e-05
25 *177:D *42:16 0
26 *177:D *42:48 0
27 *178:D *168:RESET_B 7.23602e-05
28 *181:A *42:22 3.18659e-05
29 *31:56 *42:22 5.65512e-05
30 *32:56 *177:RESET_B 0.000130465
31 *39:8 *179:RESET_B 5.83121e-06
32 *39:25 *168:RESET_B 0.000115217
33 *40:12 *168:RESET_B 0
34 *40:18 *42:16 0
35 *40:18 *42:48 0
36 *41:21 *170:RESET_B 5.92849e-05
37 *41:21 *179:RESET_B 9.36786e-05
38 *41:21 *42:31 8.39594e-05
39 *41:72 *168:RESET_B 0.000100139
*RES
1 *185:X *177:RESET_B 7.2925 
2 *177:RESET_B *42:16 3.89 
3 *42:16 *42:22 14.8 
4 *42:22 *170:RESET_B 3.635 
5 *42:22 *42:31 2.655 
6 *42:31 *171:RESET_B 2 
7 *42:31 *179:RESET_B 5.7425 
8 *42:16 *42:48 1.125 
9 *42:48 *176:RESET_B 2.7425 
10 *42:48 *168:RESET_B 7.8275 
*END

*D_NET *43 0.00379501
*CONN
*I *185:A I *D sky130_fd_sc_hd__clkbuf_2
*I *173:RESET_B I *D sky130_fd_sc_hd__dfrtp_1
*I *175:RESET_B I *D sky130_fd_sc_hd__dfrtp_1
*I *174:RESET_B I *D sky130_fd_sc_hd__dfrtp_1
*I *172:RESET_B I *D sky130_fd_sc_hd__dfrtp_1
*I *169:RESET_B I *D sky130_fd_sc_hd__dfrtp_1
*I *186:X O *D sky130_fd_sc_hd__clkbuf_2
*CAP
1 *185:A 0.000105424
2 *173:RESET_B 3.12044e-05
3 *175:RESET_B 7.8144e-05
4 *174:RESET_B 0
5 *172:RESET_B 0.000153478
6 *169:RESET_B 0.000162927
7 *186:X 0
8 *43:26 0.000234523
9 *43:24 0.000353275
10 *43:18 0.000447666
11 *43:16 0.000652173
12 *43:4 0.0004873
13 *172:RESET_B *195:A 4.43871e-06
14 *172:RESET_B *196:A 7.44375e-05
15 *173:RESET_B *48:10 2.65814e-06
16 *175:RESET_B *197:A 0.000120643
17 *175:RESET_B *48:29 0.000343541
18 *175:RESET_B *50:21 1.31844e-05
19 *43:24 *48:10 8.68646e-05
20 *43:26 *195:A 5.92191e-05
21 *43:26 *48:10 1.71013e-05
22 data_parallel_o[3] *175:RESET_B 4.40028e-05
23 data_parallel_o[3] *43:18 0
24 *177:RESET_B *185:A 4.82863e-05
25 *180:A *43:16 2.75229e-05
26 *180:A *43:18 0
27 *181:A *185:A 4.5783e-05
28 *182:A *185:A 4.43871e-06
29 *182:A *43:18 0.000146149
30 *2:9 *43:18 0
31 *2:9 *43:24 0
32 *33:25 *169:RESET_B 3.64722e-05
33 *33:25 *43:16 1.41518e-05
34 *33:25 *43:18 0
35 *41:34 *43:18 0
*RES
1 *186:X *43:4 1.6 
2 *43:4 *169:RESET_B 2.4825 
3 *43:4 *43:16 5.555 
4 *43:16 *43:18 4.44 
5 *43:18 *43:24 3.81 
6 *43:24 *43:26 1.635 
7 *43:26 *172:RESET_B 4.4 
8 *43:26 *174:RESET_B 2 
9 *43:24 *175:RESET_B 5.1575 
10 *43:18 *173:RESET_B 2.3975 
11 *43:16 *185:A 5.52 
*END

*D_NET *44 0.00436786
*CONN
*I *178:RESET_B I *D sky130_fd_sc_hd__dfrtp_1
*I *186:A I *D sky130_fd_sc_hd__clkbuf_2
*I *188:X O *D sky130_fd_sc_hd__buf_1
*CAP
1 *178:RESET_B 0.00102397
2 *186:A 0
3 *188:X 0.000479983
4 *44:10 0.00150396
5 *155:A *178:RESET_B 3.45679e-05
6 *155:B *178:RESET_B 0.000116957
7 *156:A *44:10 7.32509e-05
8 *156:B *44:10 0.000316415
9 *157:A2 *178:RESET_B 0
10 *159:A *178:RESET_B 3.64998e-06
11 *168:CLK *178:RESET_B 0
12 *168:D *178:RESET_B 0.000137574
13 *169:D *44:10 8.8266e-05
14 *170:RESET_B *178:RESET_B 0
15 *178:CLK *178:RESET_B 2.937e-05
16 *178:D *178:RESET_B 0.000140716
17 *179:RESET_B *178:RESET_B 0
18 *180:A *178:RESET_B 5.53249e-06
19 *180:A *44:10 8.97564e-05
20 *28:10 *178:RESET_B 4.83324e-05
21 *41:21 *178:RESET_B 0
22 *41:21 *44:10 0
23 *41:34 *178:RESET_B 0
24 *41:34 *44:10 0.000275553
25 *42:31 *178:RESET_B 0
*RES
1 *188:X *44:10 13.185 
2 *44:10 *186:A 3.6 
3 *44:10 *178:RESET_B 20.0225 
*END

*D_NET *45 0.000963074
*CONN
*I *184:A I *D sky130_fd_sc_hd__clkbuf_2
*I *189:X O *D sky130_fd_sc_hd__clkbuf_1
*CAP
1 *184:A 0.000466518
2 *189:X 0.000466518
3 *55:DIODE *184:A 3.00381e-05
*RES
1 *189:X *184:A 14.025 
*END

*D_NET *46 0.00119633
*CONN
*I *193:A I *D sky130_fd_sc_hd__buf_4
*I *168:Q O *D sky130_fd_sc_hd__dfrtp_1
*CAP
1 *193:A 0.000266406
2 *168:Q 0.000266406
3 *165:S *193:A 3.50033e-05
4 *178:D *193:A 7.35813e-05
5 *192:A *193:A 0.000316799
6 *41:72 *193:A 0.000238137
*RES
1 *168:Q *193:A 13.815 
*END

*D_NET *47 0.00286767
*CONN
*I *194:A I *D sky130_fd_sc_hd__buf_4
*I *160:A0 I *D sky130_fd_sc_hd__mux2_1
*I *172:Q O *D sky130_fd_sc_hd__dfrtp_1
*CAP
1 *194:A 0.000117218
2 *160:A0 0.000905298
3 *172:Q 4.34996e-05
4 *47:8 0.00106602
5 *160:A0 *160:A1 1.94805e-05
6 *194:A *196:A 4.77719e-05
7 *47:8 *196:A 2.61115e-05
8 data_parallel_o[0] *160:A0 0.000123225
9 data_parallel_o[0] *194:A 0.000352997
10 data_parallel_o[2] *160:A0 1.34594e-05
11 data_parallel_o[2] *194:A 6.60042e-05
12 *160:S *160:A0 8.65905e-05
13 *2:9 *160:A0 0
14 *2:9 *47:8 0
*RES
1 *172:Q *47:8 4.47 
2 *47:8 *160:A0 18.94 
3 *47:8 *194:A 7.17 
*END

*D_NET *48 0.00342515
*CONN
*I *161:A0 I *D sky130_fd_sc_hd__mux2_1
*I *160:A1 I *D sky130_fd_sc_hd__mux2_1
*I *195:A I *D sky130_fd_sc_hd__buf_4
*I *173:Q O *D sky130_fd_sc_hd__dfrtp_1
*CAP
1 *161:A0 0
2 *160:A1 0.000194621
3 *195:A 0.000115577
4 *173:Q 0.000166176
5 *48:29 0.000930361
6 *48:10 0.00101749