*SPEF "ieee 1481-1999"
*DESIGN "viterbi_core"
*DATE "02:32:51 Saturday January 24, 2026"
*VENDOR "The OpenROAD Project"
*PROGRAM "OpenROAD"
*VERSION "edf00dff99f6c40d67a30c0e22a8191c5d2ed9d6"
*DESIGN_FLOW "NAME_SCOPE LOCAL" "PIN_CAP NONE"
*DIVIDER /
*DELIMITER :
*BUS_DELIMITER []
*T_UNIT 1 NS
*C_UNIT 1 PF
*R_UNIT 1 OHM
*L_UNIT 1 HENRY

*NAME_MAP
*1 clk
*2 core_data_o
*3 core_valid_o
*4 piso_data_i[0]
*5 piso_data_i[1]
*6 rst_n
*7 valid_i
*10 bm_s0_s0\[0\]
*11 bm_s0_s0\[1\]
*12 bm_s0_s2\[0\]
*13 bm_s0_s2\[1\]
*14 bm_s1_s0\[0\]
*15 bm_s1_s0\[1\]
*16 bm_s1_s2\[0\]
*17 bm_s1_s2\[1\]
*18 bm_s2_s1\[0\]
*19 bm_s2_s1\[1\]
*20 bm_s2_s3\[0\]
*21 bm_s2_s3\[1\]
*22 bm_s3_s1\[0\]
*23 bm_s3_s1\[1\]
*24 bm_s3_s3\[0\]
*25 bm_s3_s3\[1\]
*26 clknet_0_clk
*27 clknet_1_0__leaf_clk
*28 clknet_1_1__leaf_clk
*29 dec_bits_new\[0\]
*30 dec_bits_new\[1\]
*31 dec_bits_new\[2\]
*32 dec_bits_new\[3\]
*33 net1
*34 net10
*35 net100
*36 net101
*37 net102
*38 net103
*39 net104
*40 net105
*41 net106
*42 net107
*43 net108
*44 net109
*45 net11
*46 net110
*47 net111
*48 net112
*49 net113
*50 net114
*51 net115
*52 net116
*53 net117
*54 net118
*55 net119
*56 net12
*57 net120
*58 net121
*59 net122
*60 net123
*61 net124
*62 net125
*63 net126
*64 net127
*65 net128
*66 net129
*67 net13
*68 net130
*69 net131
*70 net132
*71 net133
*72 net134
*73 net135
*74 net136
*75 net137
*76 net138
*77 net139
*78 net14
*79 net140
*80 net141
*81 net142
*82 net143
*83 net144
*84 net145
*85 net146
*86 net147
*87 net148
*88 net149
*89 net15
*90 net150
*91 net151
*92 net152
*93 net153
*94 net154
*95 net155
*96 net156
*97 net157
*98 net158
*99 net159
*100 net16
*101 net160
*102 net161
*103 net162
*104 net163
*105 net164
*106 net165
*107 net166
*108 net167
*109 net168
*110 net169
*111 net17
*112 net170
*113 net171
*114 net172
*115 net173
*116 net174
*117 net175
*118 net176
*119 net177
*120 net178
*121 net179
*122 net18
*123 net180
*124 net181
*125 net182
*126 net183
*127 net184
*128 net185
*129 net186
*130 net187
*131 net188
*132 net189
*133 net19
*134 net190
*135 net191
*136 net192
*137 net193
*138 net194
*139 net195
*140 net196
*141 net197
*142 net198
*143 net199
*144 net2
*145 net20
*146 net200
*147 net201
*148 net202
*149 net203
*150 net204
*151 net205
*152 net206
*153 net207
*154 net208
*155 net209
*156 net21
*157 net210
*158 net211
*159 net212
*160 net213
*161 net214
*162 net215
*163 net216
*164 net217
*165 net218
*166 net219
*167 net22
*168 net220
*169 net221
*170 net222
*171 net223
*172 net224
*173 net225
*174 net226
*175 net227
*176 net228
*177 net229
*178 net23
*179 net230
*180 net231
*181 net232
*182 net233
*183 net234
*184 net235
*185 net236
*186 net237
*187 net238
*188 net239
*189 net24
*190 net240
*191 net241
*192 net242
*193 net243
*194 net244
*195 net245
*196 net246
*197 net247
*198 net248
*199 net249
*200 net25
*201 net250
*202 net251
*203 net252
*204 net253
*205 net254
*206 net255
*207 net256
*208 net257
*209 net258
*210 net259
*211 net26
*212 net260
*213 net261
*214 net262
*215 net263
*216 net264
*217 net265
*218 net266
*219 net267
*220 net268
*221 net269
*222 net27
*223 net270
*224 net271
*225 net272
*226 net273
*227 net274
*228 net275
*229 net276
*230 net277
*231 net278
*232 net279
*233 net28
*234 net280
*235 net281
*236 net282
*237 net283
*238 net284
*239 net285
*240 net286
*241 net287
*242 net288
*243 net289
*244 net29
*245 net290
*246 net291
*247 net292
*248 net293
*249 net294
*250 net295
*251 net296
*252 net297
*253 net298
*254 net299
*255 net3
*256 net30
*257 net300
*258 net301
*259 net302
*260 net303
*261 net304
*262 net305
*263 net306
*264 net307
*265 net308
*266 net309
*267 net31
*268 net310
*269 net311
*270 net312
*271 net313
*272 net314
*273 net315
*274 net316
*275 net317
*276 net318
*277 net319
*278 net32
*279 net320
*280 net321
*281 net322
*282 net33
*283 net34
*284 net35
*285 net36
*286 net37
*287 net38
*288 net39
*289 net4
*290 net40
*291 net41
*292 net42
*293 net43
*294 net44
*295 net45
*296 net46
*297 net47
*298 net48
*299 net49
*300 net5
*301 net50
*302 net51
*303 net52
*304 net53
*305 net54
*306 net55
*307 net56
*308 net57
*309 net58
*310 net59
*311 net6
*312 net60
*313 net61
*314 net62
*315 net63
*316 net64
*317 net65
*318 net66
*319 net67
*320 net68
*321 net69
*322 net7
*323 net70
*324 net71
*325 net72
*326 net73
*327 net74
*328 net75
*329 net76
*330 net77
*331 net78
*332 net79
*333 net8
*334 net80
*335 net81
*336 net82
*337 net83
*338 net84
*339 net85
*340 net86
*341 net87
*342 net88
*343 net89
*344 net9
*345 net90
*346 net91
*347 net92
*348 net93
*349 net94
*350 net95
*351 net96
*352 net97
*353 net98
*354 net99
*355 pm_curr_s0\[0\]
*356 pm_curr_s0\[1\]
*357 pm_curr_s0\[2\]
*358 pm_curr_s0\[3\]
*359 pm_curr_s0\[4\]
*360 pm_curr_s0\[5\]
*361 pm_curr_s0\[6\]
*362 pm_curr_s0\[7\]
*363 pm_curr_s1\[0\]
*364 pm_curr_s1\[1\]
*365 pm_curr_s1\[2\]
*366 pm_curr_s1\[3\]
*367 pm_curr_s1\[4\]
*368 pm_curr_s1\[5\]
*369 pm_curr_s1\[6\]
*370 pm_curr_s1\[7\]
*371 pm_curr_s2\[0\]
*372 pm_curr_s2\[1\]
*373 pm_curr_s2\[2\]
*374 pm_curr_s2\[3\]
*375 pm_curr_s2\[4\]
*376 pm_curr_s2\[5\]
*377 pm_curr_s2\[6\]
*378 pm_curr_s2\[7\]
*379 pm_curr_s3\[0\]
*380 pm_curr_s3\[1\]
*381 pm_curr_s3\[2\]
*382 pm_curr_s3\[3\]
*383 pm_curr_s3\[4\]
*384 pm_curr_s3\[5\]
*385 pm_curr_s3\[6\]
*386 pm_curr_s3\[7\]
*387 pm_new_s0\[0\]
*388 pm_new_s0\[1\]
*389 pm_new_s0\[2\]
*390 pm_new_s0\[3\]
*391 pm_new_s0\[4\]
*392 pm_new_s0\[5\]
*393 pm_new_s0\[6\]
*394 pm_new_s0\[7\]
*395 pm_new_s1\[0\]
*396 pm_new_s1\[1\]
*397 pm_new_s1\[2\]
*398 pm_new_s1\[3\]
*399 pm_new_s1\[4\]
*400 pm_new_s1\[5\]
*401 pm_new_s1\[6\]
*402 pm_new_s1\[7\]
*403 pm_new_s2\[0\]
*404 pm_new_s2\[1\]
*405 pm_new_s2\[2\]
*406 pm_new_s2\[3\]
*407 pm_new_s2\[4\]
*408 pm_new_s2\[5\]
*409 pm_new_s2\[6\]
*410 pm_new_s2\[7\]
*411 pm_new_s3\[0\]
*412 pm_new_s3\[1\]
*413 pm_new_s3\[2\]
*414 pm_new_s3\[3\]
*415 pm_new_s3\[4\]
*416 pm_new_s3\[5\]
*417 pm_new_s3\[6\]
*418 pm_new_s3\[7\]
*419 ANTENNA_1
*420 ANTENNA_2
*421 ANTENNA_3
*422 ANTENNA_4
*423 ANTENNA_5
*424 ANTENNA_6
*425 ANTENNA_7
*426 ANTENNA_clkbuf_0_clk_A
*427 ANTENNA_clkbuf_0_clk_X
*428 ANTENNA_clkbuf_1_0__f_clk_A
*429 ANTENNA_clkbuf_1_0__f_clk_X
*430 ANTENNA_clkbuf_1_1__f_clk_A
*431 ANTENNA_clkbuf_1_1__f_clk_X
*432 ANTENNA_clkload0_A
*433 ANTENNA_input1_A
*434 ANTENNA_input1_X
*435 ANTENNA_input2_A
*436 ANTENNA_input2_X
*437 ANTENNA_input3_A
*438 ANTENNA_input3_X
*439 ANTENNA_input4_A
*440 ANTENNA_input4_X
*441 ANTENNA_max_length12_A
*442 ANTENNA_max_length12_X
*443 ANTENNA_max_length16_A
*444 ANTENNA_max_length16_X
*445 ANTENNA_max_length20_A
*446 ANTENNA_max_length20_X
*447 ANTENNA_max_length24_A
*448 ANTENNA_max_length24_X
*449 ANTENNA_max_length28_A
*450 ANTENNA_max_length28_X
*451 ANTENNA_max_length32_A
*452 ANTENNA_max_length32_X
*453 ANTENNA_max_length36_A
*454 ANTENNA_max_length36_X
*455 ANTENNA_max_length40_A
*456 ANTENNA_max_length40_X
*457 ANTENNA_max_length44_A
*458 ANTENNA_max_length44_X
*459 ANTENNA_max_length48_A
*460 ANTENNA_max_length48_X
*461 ANTENNA_max_length52_A
*462 ANTENNA_max_length52_X
*463 ANTENNA_max_length56_A
*464 ANTENNA_max_length56_X
*465 ANTENNA_max_length60_A
*466 ANTENNA_max_length60_X
*467 ANTENNA_max_length64_A
*468 ANTENNA_max_length64_X
*469 ANTENNA_max_length68_A
*470 ANTENNA_max_length68_X
*471 ANTENNA_max_length8_A
*472 ANTENNA_max_length8_X
*473 ANTENNA_output5_A
*474 ANTENNA_output6_A
*475 ANTENNA_u_acsu_bm_s0_s0_i\[0\]
*476 ANTENNA_u_acsu_bm_s0_s0_i\[1\]
*477 ANTENNA_u_acsu_bm_s0_s2_i\[0\]
*478 ANTENNA_u_acsu_bm_s0_s2_i\[1\]
*479 ANTENNA_u_acsu_bm_s1_s0_i\[0\]
*480 ANTENNA_u_acsu_bm_s1_s0_i\[1\]
*481 ANTENNA_u_acsu_bm_s1_s2_i\[0\]
*482 ANTENNA_u_acsu_bm_s1_s2_i\[1\]
*483 ANTENNA_u_acsu_bm_s2_s1_i\[0\]
*484 ANTENNA_u_acsu_bm_s2_s1_i\[1\]
*485 ANTENNA_u_acsu_bm_s2_s3_i\[0\]
*486 ANTENNA_u_acsu_bm_s2_s3_i\[1\]
*487 ANTENNA_u_acsu_bm_s3_s1_i\[0\]
*488 ANTENNA_u_acsu_bm_s3_s1_i\[1\]
*489 ANTENNA_u_acsu_bm_s3_s3_i\[0\]
*490 ANTENNA_u_acsu_bm_s3_s3_i\[1\]
*491 ANTENNA_u_acsu_dec_bits_o\[0\]
*492 ANTENNA_u_acsu_dec_bits_o\[1\]
*493 ANTENNA_u_acsu_dec_bits_o\[2\]
*494 ANTENNA_u_acsu_dec_bits_o\[3\]
*495 ANTENNA_u_acsu_pm_s0_i\[0\]
*496 ANTENNA_u_acsu_pm_s0_i\[1\]
*497 ANTENNA_u_acsu_pm_s0_i\[2\]
*498 ANTENNA_u_acsu_pm_s0_i\[3\]
*499 ANTENNA_u_acsu_pm_s0_i\[4\]
*500 ANTENNA_u_acsu_pm_s0_i\[5\]
*501 ANTENNA_u_acsu_pm_s0_i\[6\]
*502 ANTENNA_u_acsu_pm_s0_i\[7\]
*503 ANTENNA_u_acsu_pm_s0_o\[0\]
*504 ANTENNA_u_acsu_pm_s0_o\[1\]
*505 ANTENNA_u_acsu_pm_s0_o\[2\]
*506 ANTENNA_u_acsu_pm_s0_o\[3\]
*507 ANTENNA_u_acsu_pm_s0_o\[4\]
*508 ANTENNA_u_acsu_pm_s0_o\[5\]
*509 ANTENNA_u_acsu_pm_s0_o\[6\]
*510 ANTENNA_u_acsu_pm_s0_o\[7\]
*511 ANTENNA_u_acsu_pm_s1_i\[0\]
*512 ANTENNA_u_acsu_pm_s1_i\[1\]
*513 ANTENNA_u_acsu_pm_s1_i\[2\]
*514 ANTENNA_u_acsu_pm_s1_i\[3\]
*515 ANTENNA_u_acsu_pm_s1_i\[4\]
*516 ANTENNA_u_acsu_pm_s1_i\[5\]
*517 ANTENNA_u_acsu_pm_s1_i\[6\]
*518 ANTENNA_u_acsu_pm_s1_i\[7\]
*519 ANTENNA_u_acsu_pm_s1_o\[0\]
*520 ANTENNA_u_acsu_pm_s1_o\[1\]
*521 ANTENNA_u_acsu_pm_s1_o\[2\]
*522 ANTENNA_u_acsu_pm_s1_o\[3\]
*523 ANTENNA_u_acsu_pm_s1_o\[4\]
*524 ANTENNA_u_acsu_pm_s1_o\[5\]
*525 ANTENNA_u_acsu_pm_s1_o\[6\]
*526 ANTENNA_u_acsu_pm_s1_o\[7\]
*527 ANTENNA_u_acsu_pm_s2_i\[0\]
*528 ANTENNA_u_acsu_pm_s2_i\[1\]
*529 ANTENNA_u_acsu_pm_s2_i\[2\]
*530 ANTENNA_u_acsu_pm_s2_i\[3\]
*531 ANTENNA_u_acsu_pm_s2_i\[4\]
*532 ANTENNA_u_acsu_pm_s2_i\[5\]
*533 ANTENNA_u_acsu_pm_s2_i\[6\]
*534 ANTENNA_u_acsu_pm_s2_i\[7\]
*535 ANTENNA_u_acsu_pm_s2_o\[0\]
*536 ANTENNA_u_acsu_pm_s2_o\[1\]
*537 ANTENNA_u_acsu_pm_s2_o\[2\]
*538 ANTENNA_u_acsu_pm_s2_o\[3\]
*539 ANTENNA_u_acsu_pm_s2_o\[4\]
*540 ANTENNA_u_acsu_pm_s2_o\[5\]
*541 ANTENNA_u_acsu_pm_s2_o\[6\]
*542 ANTENNA_u_acsu_pm_s2_o\[7\]
*543 ANTENNA_u_acsu_pm_s3_i\[0\]
*544 ANTENNA_u_acsu_pm_s3_i\[1\]
*545 ANTENNA_u_acsu_pm_s3_i\[2\]
*546 ANTENNA_u_acsu_pm_s3_i\[3\]
*547 ANTENNA_u_acsu_pm_s3_i\[4\]
*548 ANTENNA_u_acsu_pm_s3_i\[5\]
*549 ANTENNA_u_acsu_pm_s3_i\[6\]
*550 ANTENNA_u_acsu_pm_s3_i\[7\]
*551 ANTENNA_u_acsu_pm_s3_o\[0\]
*552 ANTENNA_u_acsu_pm_s3_o\[1\]
*553 ANTENNA_u_acsu_pm_s3_o\[2\]
*554 ANTENNA_u_acsu_pm_s3_o\[3\]
*555 ANTENNA_u_acsu_pm_s3_o\[4\]
*556 ANTENNA_u_acsu_pm_s3_o\[5\]
*557 ANTENNA_u_acsu_pm_s3_o\[6\]
*558 ANTENNA_u_acsu_pm_s3_o\[7\]
*559 ANTENNA_u_bmu_bm_s0_s0_o\[0\]
*560 ANTENNA_u_bmu_bm_s0_s0_o\[1\]
*561 ANTENNA_u_bmu_bm_s0_s2_o\[0\]
*562 ANTENNA_u_bmu_bm_s0_s2_o\[1\]
*563 ANTENNA_u_bmu_bm_s1_s0_o\[0\]
*564 ANTENNA_u_bmu_bm_s1_s0_o\[1\]
*565 ANTENNA_u_bmu_bm_s1_s2_o\[0\]
*566 ANTENNA_u_bmu_bm_s1_s2_o\[1\]
*567 ANTENNA_u_bmu_bm_s2_s1_o\[0\]
*568 ANTENNA_u_bmu_bm_s2_s1_o\[1\]
*569 ANTENNA_u_bmu_bm_s2_s3_o\[0\]
*570 ANTENNA_u_bmu_bm_s2_s3_o\[1\]
*571 ANTENNA_u_bmu_bm_s3_s1_o\[0\]
*572 ANTENNA_u_bmu_bm_s3_s1_o\[1\]
*573 ANTENNA_u_bmu_bm_s3_s3_o\[0\]
*574 ANTENNA_u_bmu_bm_s3_s3_o\[1\]
*575 ANTENNA_u_bmu_piso_data_i\[0\]
*576 ANTENNA_u_bmu_piso_data_i\[1\]
*577 ANTENNA_u_pmu_clk
*578 ANTENNA_u_pmu_pm_current_s0_o\[0\]
*579 ANTENNA_u_pmu_pm_current_s0_o\[1\]
*580 ANTENNA_u_pmu_pm_current_s0_o\[2\]
*581 ANTENNA_u_pmu_pm_current_s0_o\[3\]
*582 ANTENNA_u_pmu_pm_current_s0_o\[4\]
*583 ANTENNA_u_pmu_pm_current_s0_o\[5\]
*584 ANTENNA_u_pmu_pm_current_s0_o\[6\]
*585 ANTENNA_u_pmu_pm_current_s0_o\[7\]
*586 ANTENNA_u_pmu_pm_current_s1_o\[0\]
*587 ANTENNA_u_pmu_pm_current_s1_o\[1\]
*588 ANTENNA_u_pmu_pm_current_s1_o\[2\]
*589 ANTENNA_u_pmu_pm_current_s1_o\[3\]
*590 ANTENNA_u_pmu_pm_current_s1_o\[4\]
*591 ANTENNA_u_pmu_pm_current_s1_o\[5\]
*592 ANTENNA_u_pmu_pm_current_s1_o\[6\]
*593 ANTENNA_u_pmu_pm_current_s1_o\[7\]
*594 ANTENNA_u_pmu_pm_current_s2_o\[0\]
*595 ANTENNA_u_pmu_pm_current_s2_o\[1\]
*596 ANTENNA_u_pmu_pm_current_s2_o\[2\]
*597 ANTENNA_u_pmu_pm_current_s2_o\[3\]
*598 ANTENNA_u_pmu_pm_current_s2_o\[4\]
*599 ANTENNA_u_pmu_pm_current_s2_o\[5\]
*600 ANTENNA_u_pmu_pm_current_s2_o\[6\]
*601 ANTENNA_u_pmu_pm_current_s2_o\[7\]
*602 ANTENNA_u_pmu_pm_current_s3_o\[0\]
*603 ANTENNA_u_pmu_pm_current_s3_o\[1\]
*604 ANTENNA_u_pmu_pm_current_s3_o\[2\]
*605 ANTENNA_u_pmu_pm_current_s3_o\[3\]
*606 ANTENNA_u_pmu_pm_current_s3_o\[4\]
*607 ANTENNA_u_pmu_pm_current_s3_o\[5\]
*608 ANTENNA_u_pmu_pm_current_s3_o\[6\]
*609 ANTENNA_u_pmu_pm_current_s3_o\[7\]
*610 ANTENNA_u_pmu_pm_new_s0_i\[0\]
*611 ANTENNA_u_pmu_pm_new_s0_i\[1\]
*612 ANTENNA_u_pmu_pm_new_s0_i\[2\]
*613 ANTENNA_u_pmu_pm_new_s0_i\[3\]
*614 ANTENNA_u_pmu_pm_new_s0_i\[4\]
*615 ANTENNA_u_pmu_pm_new_s0_i\[5\]
*616 ANTENNA_u_pmu_pm_new_s0_i\[6\]
*617 ANTENNA_u_pmu_pm_new_s0_i\[7\]
*618 ANTENNA_u_pmu_pm_new_s1_i\[0\]
*619 ANTENNA_u_pmu_pm_new_s1_i\[1\]
*620 ANTENNA_u_pmu_pm_new_s1_i\[2\]
*621 ANTENNA_u_pmu_pm_new_s1_i\[3\]
*622 ANTENNA_u_pmu_pm_new_s1_i\[4\]
*623 ANTENNA_u_pmu_pm_new_s1_i\[5\]
*624 ANTENNA_u_pmu_pm_new_s1_i\[6\]
*625 ANTENNA_u_pmu_pm_new_s1_i\[7\]
*626 ANTENNA_u_pmu_pm_new_s2_i\[0\]
*627 ANTENNA_u_pmu_pm_new_s2_i\[1\]
*628 ANTENNA_u_pmu_pm_new_s2_i\[2\]
*629 ANTENNA_u_pmu_pm_new_s2_i\[3\]
*630 ANTENNA_u_pmu_pm_new_s2_i\[4\]
*631 ANTENNA_u_pmu_pm_new_s2_i\[5\]
*632 ANTENNA_u_pmu_pm_new_s2_i\[6\]
*633 ANTENNA_u_pmu_pm_new_s2_i\[7\]
*634 ANTENNA_u_pmu_pm_new_s3_i\[0\]
*635 ANTENNA_u_pmu_pm_new_s3_i\[1\]
*636 ANTENNA_u_pmu_pm_new_s3_i\[2\]
*637 ANTENNA_u_pmu_pm_new_s3_i\[3\]
*638 ANTENNA_u_pmu_pm_new_s3_i\[4\]
*639 ANTENNA_u_pmu_pm_new_s3_i\[5\]
*640 ANTENNA_u_pmu_pm_new_s3_i\[6\]
*641 ANTENNA_u_pmu_pm_new_s3_i\[7\]
*642 ANTENNA_u_pmu_rst_n
*643 ANTENNA_u_pmu_valid_i
*644 ANTENNA_u_tbu_clk
*645 ANTENNA_u_tbu_dec_bits_i\[0\]
*646 ANTENNA_u_tbu_dec_bits_i\[1\]
*647 ANTENNA_u_tbu_dec_bits_i\[2\]
*648 ANTENNA_u_tbu_dec_bits_i\[3\]
*649 ANTENNA_u_tbu_decoded_bit_o
*650 ANTENNA_u_tbu_pm_new_s0_i\[0\]
*651 ANTENNA_u_tbu_pm_new_s0_i\[1\]
*652 ANTENNA_u_tbu_pm_new_s0_i\[2\]
*653 ANTENNA_u_tbu_pm_new_s0_i\[3\]
*654 ANTENNA_u_tbu_pm_new_s0_i\[4\]
*655 ANTENNA_u_tbu_pm_new_s0_i\[5\]
*656 ANTENNA_u_tbu_pm_new_s0_i\[6\]
*657 ANTENNA_u_tbu_pm_new_s0_i\[7\]
*658 ANTENNA_u_tbu_pm_new_s1_i\[0\]
*659 ANTENNA_u_tbu_pm_new_s1_i\[1\]
*660 ANTENNA_u_tbu_pm_new_s1_i\[2\]
*661 ANTENNA_u_tbu_pm_new_s1_i\[3\]
*662 ANTENNA_u_tbu_pm_new_s1_i\[4\]
*663 ANTENNA_u_tbu_pm_new_s1_i\[5\]
*664 ANTENNA_u_tbu_pm_new_s1_i\[6\]
*665 ANTENNA_u_tbu_pm_new_s1_i\[7\]
*666 ANTENNA_u_tbu_pm_new_s2_i\[0\]
*667 ANTENNA_u_tbu_pm_new_s2_i\[1\]
*668 ANTENNA_u_tbu_pm_new_s2_i\[2\]
*669 ANTENNA_u_tbu_pm_new_s2_i\[3\]
*670 ANTENNA_u_tbu_pm_new_s2_i\[4\]
*671 ANTENNA_u_tbu_pm_new_s2_i\[5\]
*672 ANTENNA_u_tbu_pm_new_s2_i\[6\]
*673 ANTENNA_u_tbu_pm_new_s2_i\[7\]
*674 ANTENNA_u_tbu_pm_new_s3_i\[0\]
*675 ANTENNA_u_tbu_pm_new_s3_i\[1\]
*676 ANTENNA_u_tbu_pm_new_s3_i\[2\]
*677 ANTENNA_u_tbu_pm_new_s3_i\[3\]
*678 ANTENNA_u_tbu_pm_new_s3_i\[4\]
*679 ANTENNA_u_tbu_pm_new_s3_i\[5\]
*680 ANTENNA_u_tbu_pm_new_s3_i\[6\]
*681 ANTENNA_u_tbu_pm_new_s3_i\[7\]
*682 ANTENNA_u_tbu_rst_n
*683 ANTENNA_u_tbu_valid_i
*684 ANTENNA_u_tbu_valid_o
*685 ANTENNA_wire100_A
*686 ANTENNA_wire100_X
*687 ANTENNA_wire101_A
*688 ANTENNA_wire101_X
*689 ANTENNA_wire102_A
*690 ANTENNA_wire102_X
*691 ANTENNA_wire103_A
*692 ANTENNA_wire103_X
*693 ANTENNA_wire104_A
*694 ANTENNA_wire104_X
*695 ANTENNA_wire105_A
*696 ANTENNA_wire105_X
*697 ANTENNA_wire106_A
*698 ANTENNA_wire106_X
*699 ANTENNA_wire107_A
*700 ANTENNA_wire107_X
*701 ANTENNA_wire108_A
*702 ANTENNA_wire108_X
*703 ANTENNA_wire109_A
*704 ANTENNA_wire109_X
*705 ANTENNA_wire10_A
*706 ANTENNA_wire10_X
*707 ANTENNA_wire110_A
*708 ANTENNA_wire110_X
*709 ANTENNA_wire111_A
*710 ANTENNA_wire111_X
*711 ANTENNA_wire112_A
*712 ANTENNA_wire112_X
*713 ANTENNA_wire113_A
*714 ANTENNA_wire113_X
*715 ANTENNA_wire114_A
*716 ANTENNA_wire114_X
*717 ANTENNA_wire115_A
*718 ANTENNA_wire115_X
*719 ANTENNA_wire116_A
*720 ANTENNA_wire116_X
*721 ANTENNA_wire117_A
*722 ANTENNA_wire117_X
*723 ANTENNA_wire118_A
*724 ANTENNA_wire118_X
*725 ANTENNA_wire119_A
*726 ANTENNA_wire119_X
*727 ANTENNA_wire11_A
*728 ANTENNA_wire11_X
*729 ANTENNA_wire120_A
*730 ANTENNA_wire120_X
*731 ANTENNA_wire121_A
*732 ANTENNA_wire121_X
*733 ANTENNA_wire122_A
*734 ANTENNA_wire122_X
*735 ANTENNA_wire123_A
*736 ANTENNA_wire123_X
*737 ANTENNA_wire124_A
*738 ANTENNA_wire124_X
*739 ANTENNA_wire125_A
*740 ANTENNA_wire125_X
*741 ANTENNA_wire126_A
*742 ANTENNA_wire126_X
*743 ANTENNA_wire127_A
*744 ANTENNA_wire127_X
*745 ANTENNA_wire128_A
*746 ANTENNA_wire128_X
*747 ANTENNA_wire129_A
*748 ANTENNA_wire129_X
*749 ANTENNA_wire130_A
*750 ANTENNA_wire130_X
*751 ANTENNA_wire131_A
*752 ANTENNA_wire131_X
*753 ANTENNA_wire132_A
*754 ANTENNA_wire132_X
*755 ANTENNA_wire133_A
*756 ANTENNA_wire133_X
*757 ANTENNA_wire134_A
*758 ANTENNA_wire134_X
*759 ANTENNA_wire135_A
*760 ANTENNA_wire135_X
*761 ANTENNA_wire136_A
*762 ANTENNA_wire136_X
*763 ANTENNA_wire137_A
*764 ANTENNA_wire137_X
*765 ANTENNA_wire138_A
*766 ANTENNA_wire138_X
*767 ANTENNA_wire139_A
*768 ANTENNA_wire139_X
*769 ANTENNA_wire13_A
*770 ANTENNA_wire13_X
*771 ANTENNA_wire140_A
*772 ANTENNA_wire140_X
*773 ANTENNA_wire141_A
*774 ANTENNA_wire141_X
*775 ANTENNA_wire142_A
*776 ANTENNA_wire142_X
*777 ANTENNA_wire143_A
*778 ANTENNA_wire143_X
*779 ANTENNA_wire144_A
*780 ANTENNA_wire144_X
*781 ANTENNA_wire145_A
*782 ANTENNA_wire145_X
*783 ANTENNA_wire146_A
*784 ANTENNA_wire146_X
*785 ANTENNA_wire147_A
*786 ANTENNA_wire147_X
*787 ANTENNA_wire148_A
*788 ANTENNA_wire148_X
*789 ANTENNA_wire149_A
*790 ANTENNA_wire149_X
*791 ANTENNA_wire14_A
*792 ANTENNA_wire14_X
*793 ANTENNA_wire150_A
*794 ANTENNA_wire150_X
*795 ANTENNA_wire151_A
*796 ANTENNA_wire151_X
*797 ANTENNA_wire152_A
*798 ANTENNA_wire152_X
*799 ANTENNA_wire153_A
*800 ANTENNA_wire153_X
*801 ANTENNA_wire154_A
*802 ANTENNA_wire154_X
*803 ANTENNA_wire155_A
*804 ANTENNA_wire155_X
*805 ANTENNA_wire156_A
*806 ANTENNA_wire156_X
*807 ANTENNA_wire157_A
*808 ANTENNA_wire157_X
*809 ANTENNA_wire158_A
*810 ANTENNA_wire158_X
*811 ANTENNA_wire159_A
*812 ANTENNA_wire159_X
*813 ANTENNA_wire15_A
*814 ANTENNA_wire15_X
*815 ANTENNA_wire160_A
*816 ANTENNA_wire160_X
*817 ANTENNA_wire161_A
*818 ANTENNA_wire161_X
*819 ANTENNA_wire162_A
*820 ANTENNA_wire162_X
*821 ANTENNA_wire163_A
*822 ANTENNA_wire163_X
*823 ANTENNA_wire164_A
*824 ANTENNA_wire164_X
*825 ANTENNA_wire165_A
*826 ANTENNA_wire165_X
*827 ANTENNA_wire166_A
*828 ANTENNA_wire166_X
*829 ANTENNA_wire167_A
*830 ANTENNA_wire167_X
*831 ANTENNA_wire168_A
*832 ANTENNA_wire168_X
*833 ANTENNA_wire169_A
*834 ANTENNA_wire169_X
*835 ANTENNA_wire170_A
*836 ANTENNA_wire170_X
*837 ANTENNA_wire171_A
*838 ANTENNA_wire171_X
*839 ANTENNA_wire172_A
*840 ANTENNA_wire172_X
*841 ANTENNA_wire173_A
*842 ANTENNA_wire173_X
*843 ANTENNA_wire174_A
*844 ANTENNA_wire174_X
*845 ANTENNA_wire175_A
*846 ANTENNA_wire175_X
*847 ANTENNA_wire176_A
*848 ANTENNA_wire176_X
*849 ANTENNA_wire177_A
*850 ANTENNA_wire177_X
*851 ANTENNA_wire178_A
*852 ANTENNA_wire178_X
*853 ANTENNA_wire179_A
*854 ANTENNA_wire179_X
*855 ANTENNA_wire17_A
*856 ANTENNA_wire17_X
*857 ANTENNA_wire180_A
*858 ANTENNA_wire180_X
*859 ANTENNA_wire181_A
*860 ANTENNA_wire181_X
*861 ANTENNA_wire182_A
*862 ANTENNA_wire182_X
*863 ANTENNA_wire183_A
*864 ANTENNA_wire183_X
*865 ANTENNA_wire184_A
*866 ANTENNA_wire184_X
*867 ANTENNA_wire185_A
*868 ANTENNA_wire185_X
*869 ANTENNA_wire186_A
*870 ANTENNA_wire186_X
*871 ANTENNA_wire187_A
*872 ANTENNA_wire187_X
*873 ANTENNA_wire188_A
*874 ANTENNA_wire188_X
*875 ANTENNA_wire189_A
*876 ANTENNA_wire189_X
*877 ANTENNA_wire18_A
*878 ANTENNA_wire18_X
*879 ANTENNA_wire190_A
*880 ANTENNA_wire190_X
*881 ANTENNA_wire191_A
*882 ANTENNA_wire191_X
*883 ANTENNA_wire192_A
*884 ANTENNA_wire192_X
*885 ANTENNA_wire193_A
*886 ANTENNA_wire193_X
*887 ANTENNA_wire194_A
*888 ANTENNA_wire194_X
*889 ANTENNA_wire195_A
*890 ANTENNA_wire195_X
*891 ANTENNA_wire196_A
*892 ANTENNA_wire196_X
*893 ANTENNA_wire197_A
*894 ANTENNA_wire197_X
*895 ANTENNA_wire198_A
*896 ANTENNA_wire198_X
*897 ANTENNA_wire199_A
*898 ANTENNA_wire199_X
*899 ANTENNA_wire19_A
*900 ANTENNA_wire19_X
*901 ANTENNA_wire200_A
*902 ANTENNA_wire200_X
*903 ANTENNA_wire201_A
*904 ANTENNA_wire201_X
*905 ANTENNA_wire202_A
*906 ANTENNA_wire202_X
*907 ANTENNA_wire203_A
*908 ANTENNA_wire203_X
*909 ANTENNA_wire204_A
*910 ANTENNA_wire204_X
*911 ANTENNA_wire205_A
*912 ANTENNA_wire205_X
*913 ANTENNA_wire206_A
*914 ANTENNA_wire206_X
*915 ANTENNA_wire207_A
*916 ANTENNA_wire207_X
*917 ANTENNA_wire208_A
*918 ANTENNA_wire208_X
*919 ANTENNA_wire209_A
*920 ANTENNA_wire209_X
*921 ANTENNA_wire210_A
*922 ANTENNA_wire210_X
*923 ANTENNA_wire211_A
*924 ANTENNA_wire211_X
*925 ANTENNA_wire212_A
*926 ANTENNA_wire212_X
*927 ANTENNA_wire213_A
*928 ANTENNA_wire213_X
*929 ANTENNA_wire214_A
*930 ANTENNA_wire214_X
*931 ANTENNA_wire215_A
*932 ANTENNA_wire215_X
*933 ANTENNA_wire216_A
*934 ANTENNA_wire216_X
*935 ANTENNA_wire217_A
*936 ANTENNA_wire217_X
*937 ANTENNA_wire218_A
*938 ANTENNA_wire218_X
*939 ANTENNA_wire219_A
*940 ANTENNA_wire219_X
*941 ANTENNA_wire21_A
*942 ANTENNA_wire21_X
*943 ANTENNA_wire220_A
*944 ANTENNA_wire220_X
*945 ANTENNA_wire221_A
*946 ANTENNA_wire221_X
*947 ANTENNA_wire222_A
*948 ANTENNA_wire222_X
*949 ANTENNA_wire223_A
*950 ANTENNA_wire223_X
*951 ANTENNA_wire224_A
*952 ANTENNA_wire224_X
*953 ANTENNA_wire225_A
*954 ANTENNA_wire225_X
*955 ANTENNA_wire226_A
*956 ANTENNA_wire226_X
*957 ANTENNA_wire227_A
*958 ANTENNA_wire227_X
*959 ANTENNA_wire228_A
*960 ANTENNA_wire228_X
*961 ANTENNA_wire229_A
*962 ANTENNA_wire229_X
*963 ANTENNA_wire22_A
*964 ANTENNA_wire22_X
*965 ANTENNA_wire230_A
*966 ANTENNA_wire230_X
*967 ANTENNA_wire231_A
*968 ANTENNA_wire231_X
*969 ANTENNA_wire232_A
*970 ANTENNA_wire232_X
*971 ANTENNA_wire233_A
*972 ANTENNA_wire233_X
*973 ANTENNA_wire234_A
*974 ANTENNA_wire234_X
*975 ANTENNA_wire235_A
*976 ANTENNA_wire235_X
*977 ANTENNA_wire236_A
*978 ANTENNA_wire236_X
*979 ANTENNA_wire237_A
*980 ANTENNA_wire237_X
*981 ANTENNA_wire238_A
*982 ANTENNA_wire238_X
*983 ANTENNA_wire239_A
*984 ANTENNA_wire239_X
*985 ANTENNA_wire23_A
*986 ANTENNA_wire23_X
*987 ANTENNA_wire240_A
*988 ANTENNA_wire240_X
*989 ANTENNA_wire241_A
*990 ANTENNA_wire241_X
*991 ANTENNA_wire242_A
*992 ANTENNA_wire242_X
*993 ANTENNA_wire243_A
*994 ANTENNA_wire243_X
*995 ANTENNA_wire244_A
*996 ANTENNA_wire244_X
*997 ANTENNA_wire245_A
*998 ANTENNA_wire245_X
*999 ANTENNA_wire246_A
*1000 ANTENNA_wire246_X
*1001 ANTENNA_wire247_A
*1002 ANTENNA_wire247_X
*1003 ANTENNA_wire248_A
*1004 ANTENNA_wire248_X
*1005 ANTENNA_wire249_A
*1006 ANTENNA_wire249_X
*1007 ANTENNA_wire250_A
*1008 ANTENNA_wire250_X
*1009 ANTENNA_wire251_A
*1010 ANTENNA_wire251_X
*1011 ANTENNA_wire252_A
*1012 ANTENNA_wire252_X
*1013 ANTENNA_wire253_A
*1014 ANTENNA_wire253_X
*1015 ANTENNA_wire254_A
*1016 ANTENNA_wire254_X
*1017 ANTENNA_wire255_A
*1018 ANTENNA_wire255_X
*1019 ANTENNA_wire256_A
*1020 ANTENNA_wire256_X
*1021 ANTENNA_wire257_A
*1022 ANTENNA_wire257_X
*1023 ANTENNA_wire258_A
*1024 ANTENNA_wire258_X
*1025 ANTENNA_wire259_A
*1026 ANTENNA_wire259_X
*1027 ANTENNA_wire25_A
*1028 ANTENNA_wire25_X
*1029 ANTENNA_wire260_A
*1030 ANTENNA_wire260_X
*1031 ANTENNA_wire261_A
*1032 ANTENNA_wire261_X
*1033 ANTENNA_wire262_A
*1034 ANTENNA_wire262_X
*1035 ANTENNA_wire263_A
*1036 ANTENNA_wire263_X
*1037 ANTENNA_wire264_A
*1038 ANTENNA_wire264_X
*1039 ANTENNA_wire265_A
*1040 ANTENNA_wire265_X
*1041 ANTENNA_wire266_A
*1042 ANTENNA_wire266_X
*1043 ANTENNA_wire267_A
*1044 ANTENNA_wire267_X
*1045 ANTENNA_wire268_A
*1046 ANTENNA_wire268_X
*1047 ANTENNA_wire269_A
*1048 ANTENNA_wire269_X
*1049 ANTENNA_wire26_A
*1050 ANTENNA_wire26_X
*1051 ANTENNA_wire270_A
*1052 ANTENNA_wire270_X
*1053 ANTENNA_wire271_A
*1054 ANTENNA_wire271_X
*1055 ANTENNA_wire272_A
*1056 ANTENNA_wire272_X
*1057 ANTENNA_wire273_A
*1058 ANTENNA_wire273_X
*1059 ANTENNA_wire274_A
*1060 ANTENNA_wire274_X
*1061 ANTENNA_wire275_A
*1062 ANTENNA_wire275_X
*1063 ANTENNA_wire276_A
*1064 ANTENNA_wire276_X
*1065 ANTENNA_wire277_A
*1066 ANTENNA_wire277_X
*1067 ANTENNA_wire278_A
*1068 ANTENNA_wire278_X
*1069 ANTENNA_wire279_A
*1070 ANTENNA_wire279_X
*1071 ANTENNA_wire27_A
*1072 ANTENNA_wire27_X
*1073 ANTENNA_wire280_A
*1074 ANTENNA_wire280_X
*1075 ANTENNA_wire281_A
*1076 ANTENNA_wire281_X
*1077 ANTENNA_wire282_A
*1078 ANTENNA_wire282_X
*1079 ANTENNA_wire283_A
*1080 ANTENNA_wire283_X
*1081 ANTENNA_wire284_A
*1082 ANTENNA_wire284_X
*1083 ANTENNA_wire285_A
*1084 ANTENNA_wire285_X
*1085 ANTENNA_wire286_A
*1086 ANTENNA_wire286_X
*1087 ANTENNA_wire287_A
*1088 ANTENNA_wire287_X
*1089 ANTENNA_wire288_A
*1090 ANTENNA_wire288_X
*1091 ANTENNA_wire289_A
*1092 ANTENNA_wire289_X
*1093 ANTENNA_wire290_A
*1094 ANTENNA_wire290_X
*1095 ANTENNA_wire291_A
*1096 ANTENNA_wire291_X
*1097 ANTENNA_wire292_A
*1098 ANTENNA_wire292_X
*1099 ANTENNA_wire293_A
*1100 ANTENNA_wire293_X
*1101 ANTENNA_wire294_A
*1102 ANTENNA_wire294_X
*1103 ANTENNA_wire295_A
*1104 ANTENNA_wire295_X
*1105 ANTENNA_wire296_A
*1106 ANTENNA_wire296_X
*1107 ANTENNA_wire297_A
*1108 ANTENNA_wire297_X
*1109 ANTENNA_wire298_A
*1110 ANTENNA_wire298_X
*1111 ANTENNA_wire299_A
*1112 ANTENNA_wire299_X
*1113 ANTENNA_wire29_A
*1114 ANTENNA_wire29_X
*1115 ANTENNA_wire300_A
*1116 ANTENNA_wire300_X
*1117 ANTENNA_wire301_A
*1118 ANTENNA_wire301_X
*1119 ANTENNA_wire302_A
*1120 ANTENNA_wire302_X
*1121 ANTENNA_wire303_A
*1122 ANTENNA_wire303_X
*1123 ANTENNA_wire304_A
*1124 ANTENNA_wire304_X
*1125 ANTENNA_wire305_A
*1126 ANTENNA_wire305_X
*1127 ANTENNA_wire306_A
*1128 ANTENNA_wire306_X
*1129 ANTENNA_wire307_A
*1130 ANTENNA_wire307_X
*1131 ANTENNA_wire308_A
*1132 ANTENNA_wire308_X
*1133 ANTENNA_wire309_A
*1134 ANTENNA_wire309_X
*1135 ANTENNA_wire30_A
*1136 ANTENNA_wire30_X
*1137 ANTENNA_wire310_A
*1138 ANTENNA_wire310_X
*1139 ANTENNA_wire311_A
*1140 ANTENNA_wire311_X
*1141 ANTENNA_wire312_A
*1142 ANTENNA_wire312_X
*1143 ANTENNA_wire313_A
*1144 ANTENNA_wire313_X
*1145 ANTENNA_wire314_A
*1146 ANTENNA_wire314_X
*1147 ANTENNA_wire315_A
*1148 ANTENNA_wire315_X
*1149 ANTENNA_wire316_A
*1150 ANTENNA_wire316_X
*1151 ANTENNA_wire317_A
*1152 ANTENNA_wire317_X
*1153 ANTENNA_wire318_A
*1154 ANTENNA_wire318_X
*1155 ANTENNA_wire319_A
*1156 ANTENNA_wire319_X
*1157 ANTENNA_wire31_A
*1158 ANTENNA_wire31_X
*1159 ANTENNA_wire320_A
*1160 ANTENNA_wire320_X
*1161 ANTENNA_wire321_A
*1162 ANTENNA_wire321_X
*1163 ANTENNA_wire322_A
*1164 ANTENNA_wire322_X
*1165 ANTENNA_wire33_A
*1166 ANTENNA_wire33_X
*1167 ANTENNA_wire34_A
*1168 ANTENNA_wire34_X
*1169 ANTENNA_wire35_A
*1170 ANTENNA_wire35_X
*1171 ANTENNA_wire37_A
*1172 ANTENNA_wire37_X
*1173 ANTENNA_wire38_A
*1174 ANTENNA_wire38_X
*1175 ANTENNA_wire39_A
*1176 ANTENNA_wire39_X
*1177 ANTENNA_wire41_A
*1178 ANTENNA_wire41_X
*1179 ANTENNA_wire42_A
*1180 ANTENNA_wire42_X
*1181 ANTENNA_wire43_A
*1182 ANTENNA_wire43_X
*1183 ANTENNA_wire45_A
*1184 ANTENNA_wire45_X
*1185 ANTENNA_wire46_A
*1186 ANTENNA_wire46_X
*1187 ANTENNA_wire47_A
*1188 ANTENNA_wire47_X
*1189 ANTENNA_wire49_A
*1190 ANTENNA_wire49_X
*1191 ANTENNA_wire50_A
*1192 ANTENNA_wire50_X
*1193 ANTENNA_wire51_A
*1194 ANTENNA_wire51_X
*1195 ANTENNA_wire53_A
*1196 ANTENNA_wire53_X
*1197 ANTENNA_wire54_A
*1198 ANTENNA_wire54_X
*1199 ANTENNA_wire55_A
*1200 ANTENNA_wire55_X
*1201 ANTENNA_wire57_A
*1202 ANTENNA_wire57_X
*1203 ANTENNA_wire58_A
*1204 ANTENNA_wire58_X
*1205 ANTENNA_wire59_A
*1206 ANTENNA_wire59_X
*1207 ANTENNA_wire61_A
*1208 ANTENNA_wire61_X
*1209 ANTENNA_wire62_A
*1210 ANTENNA_wire62_X
*1211 ANTENNA_wire63_A
*1212 ANTENNA_wire63_X
*1213 ANTENNA_wire65_A
*1214 ANTENNA_wire65_X
*1215 ANTENNA_wire66_A
*1216 ANTENNA_wire66_X
*1217 ANTENNA_wire67_A
*1218 ANTENNA_wire67_X
*1219 ANTENNA_wire69_A
*1220 ANTENNA_wire69_X
*1221 ANTENNA_wire70_A
*1222 ANTENNA_wire70_X
*1223 ANTENNA_wire71_A
*1224 ANTENNA_wire71_X
*1225 ANTENNA_wire72_A
*1226 ANTENNA_wire72_X
*1227 ANTENNA_wire73_A
*1228 ANTENNA_wire73_X
*1229 ANTENNA_wire74_A
*1230 ANTENNA_wire74_X
*1231 ANTENNA_wire75_A
*1232 ANTENNA_wire75_X
*1233 ANTENNA_wire76_A
*1234 ANTENNA_wire76_X
*1235 ANTENNA_wire77_A
*1236 ANTENNA_wire77_X
*1237 ANTENNA_wire78_A
*1238 ANTENNA_wire78_X
*1239 ANTENNA_wire79_A
*1240 ANTENNA_wire79_X
*1241 ANTENNA_wire7_A
*1242 ANTENNA_wire7_X
*1243 ANTENNA_wire80_A
*1244 ANTENNA_wire80_X
*1245 ANTENNA_wire81_A
*1246 ANTENNA_wire81_X
*1247 ANTENNA_wire82_A
*1248 ANTENNA_wire82_X
*1249 ANTENNA_wire83_A
*1250 ANTENNA_wire83_X
*1251 ANTENNA_wire84_A
*1252 ANTENNA_wire84_X
*1253 ANTENNA_wire85_A
*1254 ANTENNA_wire85_X
*1255 ANTENNA_wire86_A
*1256 ANTENNA_wire86_X
*1257 ANTENNA_wire87_A
*1258 ANTENNA_wire87_X
*1259 ANTENNA_wire88_A
*1260 ANTENNA_wire88_X
*1261 ANTENNA_wire89_A
*1262 ANTENNA_wire89_X
*1263 ANTENNA_wire90_A
*1264 ANTENNA_wire90_X
*1265 ANTENNA_wire91_A
*1266 ANTENNA_wire91_X
*1267 ANTENNA_wire92_A
*1268 ANTENNA_wire92_X
*1269 ANTENNA_wire93_A
*1270 ANTENNA_wire93_X
*1271 ANTENNA_wire94_A
*1272 ANTENNA_wire94_X
*1273 ANTENNA_wire95_A
*1274 ANTENNA_wire95_X
*1275 ANTENNA_wire96_A
*1276 ANTENNA_wire96_X
*1277 ANTENNA_wire97_A
*1278 ANTENNA_wire97_X
*1279 ANTENNA_wire98_A
*1280 ANTENNA_wire98_X
*1281 ANTENNA_wire99_A
*1282 ANTENNA_wire99_X
*1283 ANTENNA_wire9_A
*1284 ANTENNA_wire9_X
*1285 FILLER_0_1005
*1286 FILLER_0_1009
*1287 FILLER_0_1021
*1288 FILLER_0_1033
*1289 FILLER_0_1037
*1290 FILLER_0_1049
*1291 FILLER_0_1061
*1292 FILLER_0_1065
*1293 FILLER_0_1077
*1294 FILLER_0_1089
*1295 FILLER_0_109
*1296 FILLER_0_1093
*1297 FILLER_0_1105
*1298 FILLER_0_1117
*1299 FILLER_0_1121
*1300 FILLER_0_113
*1301 FILLER_0_1133
*1302 FILLER_0_1145
*1303 FILLER_0_1149
*1304 FILLER_0_1161
*1305 FILLER_0_1173
*1306 FILLER_0_1177
*1307 FILLER_0_1189
*1308 FILLER_0_1201
*1309 FILLER_0_1205
*1310 FILLER_0_1217
*1311 FILLER_0_1229
*1312 FILLER_0_1233
*1313 FILLER_0_1245
*1314 FILLER_0_125
*1315 FILLER_0_1257
*1316 FILLER_0_1261
*1317 FILLER_0_1273
*1318 FILLER_0_1285
*1319 FILLER_0_1289
*1320 FILLER_0_1301
*1321 FILLER_0_1313
*1322 FILLER_0_1317
*1323 FILLER_0_1329
*1324 FILLER_0_1341
*1325 FILLER_0_1345
*1326 FILLER_0_1357
*1327 FILLER_0_1369
*1328 FILLER_0_137
*1329 FILLER_0_1373
*1330 FILLER_0_1385
*1331 FILLER_0_1397
*1332 FILLER_0_1401
*1333 FILLER_0_141
*1334 FILLER_0_1413
*1335 FILLER_0_1425
*1336 FILLER_0_1429
*1337 FILLER_0_1441
*1338 FILLER_0_1453
*1339 FILLER_0_1457
*1340 FILLER_0_1469
*1341 FILLER_0_1481
*1342 FILLER_0_1485
*1343 FILLER_0_1497
*1344 FILLER_0_15
*1345 FILLER_0_1509
*1346 FILLER_0_1525
*1347 FILLER_0_1529
*1348 FILLER_0_153
*1349 FILLER_0_1533
*1350 FILLER_0_1537
*1351 FILLER_0_1541
*1352 FILLER_0_1553