*SPEF "ieee 1481-1999"
*DESIGN "piso"
*DATE "02:23:38 Saturday January 24, 2026"
*VENDOR "The OpenROAD Project"
*PROGRAM "OpenROAD"
*VERSION "edf00dff99f6c40d67a30c0e22a8191c5d2ed9d6"
*DESIGN_FLOW "NAME_SCOPE LOCAL" "PIN_CAP NONE"
*DIVIDER /
*DELIMITER :
*BUS_DELIMITER []
*T_UNIT 1 NS
*C_UNIT 1 PF
*R_UNIT 1 OHM
*L_UNIT 1 HENRY

*NAME_MAP
*1 clk
*2 data_serial_o[0]
*3 data_serial_o[1]
*4 fifo_data_i[0]
*5 fifo_data_i[10]
*6 fifo_data_i[11]
*7 fifo_data_i[12]
*8 fifo_data_i[13]
*9 fifo_data_i[14]
*10 fifo_data_i[15]
*11 fifo_data_i[1]
*12 fifo_data_i[2]
*13 fifo_data_i[3]
*14 fifo_data_i[4]
*15 fifo_data_i[5]
*16 fifo_data_i[6]
*17 fifo_data_i[7]
*18 fifo_data_i[8]
*19 fifo_data_i[9]
*20 fifo_empty_i
*21 fifo_rd_en_o
*22 rst_n
*23 valid_serial_o
*26 _000_
*27 _001_
*28 _002_
*29 _003_
*30 _004_
*31 _005_
*32 _006_
*33 _007_
*34 _008_
*35 _009_
*36 _010_
*37 _011_
*38 _012_
*39 _013_
*40 _014_
*41 _015_
*42 _016_
*43 _017_
*44 _018_
*45 _019_
*46 _020_
*47 _021_
*48 _022_
*49 _023_
*50 _024_
*51 _025_
*52 _026_
*53 _027_
*54 _028_
*55 _029_
*56 _030_
*57 _031_
*58 _032_
*59 _033_
*60 _034_
*61 _035_
*62 _036_
*63 _037_
*64 _038_
*65 _039_
*66 _040_
*67 _041_
*68 _042_
*69 _043_
*70 _044_
*71 _045_
*72 clknet_0_clk
*73 clknet_1_0__leaf_clk
*74 clknet_1_1__leaf_clk
*75 count\[0\]
*76 count\[1\]
*77 count\[2\]
*78 count\[3\]
*79 net1
*80 net10
*81 net11
*82 net12
*83 net13
*84 net14
*85 net15
*86 net16
*87 net17
*88 net18
*89 net19
*90 net2
*91 net20
*92 net21
*93 net22
*94 net23
*95 net24
*96 net25
*97 net26
*98 net27
*99 net28
*100 net29
*101 net3
*102 net30
*103 net31
*104 net32
*105 net33
*106 net34
*107 net35
*108 net36
*109 net37
*110 net38
*111 net39
*112 net4
*113 net40
*114 net41
*115 net42
*116 net5
*117 net6
*118 net7
*119 net8
*120 net9
*121 shift_reg\[10\]
*122 shift_reg\[11\]
*123 shift_reg\[12\]
*124 shift_reg\[13\]
*125 shift_reg\[14\]
*126 shift_reg\[15\]
*127 shift_reg\[2\]
*128 shift_reg\[3\]
*129 shift_reg\[4\]
*130 shift_reg\[5\]
*131 shift_reg\[6\]
*132 shift_reg\[7\]
*133 shift_reg\[8\]
*134 shift_reg\[9\]
*135 state\[1\]
*136 ANTENNA_clkbuf_0_clk_A
*137 ANTENNA_input10_A
*138 ANTENNA_input11_A
*139 ANTENNA_input12_A
*140 ANTENNA_input13_A
*141 ANTENNA_input14_A
*142 ANTENNA_input15_A
*143 ANTENNA_input16_A
*144 ANTENNA_input17_A
*145 ANTENNA_input18_A
*146 ANTENNA_input1_A
*147 ANTENNA_input2_A
*148 ANTENNA_input3_A
*149 ANTENNA_input4_A
*150 ANTENNA_input5_A
*151 ANTENNA_input6_A
*152 ANTENNA_input7_A
*153 ANTENNA_input8_A
*154 ANTENNA_input9_A
*155 FILLER_0_101
*156 FILLER_0_23
*157 FILLER_0_27
*158 FILLER_0_29
*159 FILLER_0_41
*160 FILLER_0_53
*161 FILLER_0_57
*162 FILLER_0_69
*163 FILLER_0_81
*164 FILLER_0_85
*165 FILLER_0_97
*166 FILLER_10_105
*167 FILLER_10_14
*168 FILLER_10_23
*169 FILLER_10_27
*170 FILLER_10_29
*171 FILLER_10_52
*172 FILLER_10_63
*173 FILLER_10_75
*174 FILLER_10_8
*175 FILLER_10_83
*176 FILLER_10_85
*177 FILLER_10_97
*178 FILLER_11_10
*179 FILLER_11_106
*180 FILLER_11_23
*181 FILLER_11_35
*182 FILLER_11_51
*183 FILLER_11_55
*184 FILLER_11_86
*185 FILLER_11_98
*186 FILLER_12_107
*187 FILLER_12_26
*188 FILLER_12_29
*189 FILLER_12_41
*190 FILLER_12_53
*191 FILLER_12_61
*192 FILLER_12_95
*193 FILLER_13_101
*194 FILLER_13_107
*195 FILLER_13_35
*196 FILLER_13_65
*197 FILLER_13_77
*198 FILLER_13_8
*199 FILLER_13_89
*200 FILLER_14_105
*201 FILLER_14_13
*202 FILLER_14_20
*203 FILLER_14_46
*204 FILLER_14_85
*205 FILLER_14_97
*206 FILLER_15_105
*207 FILLER_15_23
*208 FILLER_15_53
*209 FILLER_15_93
*210 FILLER_16_26
*211 FILLER_16_29
*212 FILLER_16_37
*213 FILLER_16_61
*214 FILLER_16_81
*215 FILLER_16_85
*216 FILLER_17_101
*217 FILLER_17_27
*218 FILLER_17_29
*219 FILLER_17_41
*220 FILLER_17_53
*221 FILLER_17_57
*222 FILLER_17_69
*223 FILLER_17_81
*224 FILLER_17_85
*225 FILLER_17_97
*226 FILLER_1_10
*227 FILLER_1_57
*228 FILLER_1_69
*229 FILLER_1_81
*230 FILLER_1_87
*231 FILLER_2_105
*232 FILLER_2_26
*233 FILLER_2_37
*234 FILLER_2_49
*235 FILLER_2_61
*236 FILLER_2_73
*237 FILLER_2_81
*238 FILLER_2_85
*239 FILLER_2_97
*240 FILLER_3_105
*241 FILLER_3_28
*242 FILLER_3_40
*243 FILLER_3_52
*244 FILLER_3_57
*245 FILLER_3_81
*246 FILLER_3_93
*247 FILLER_4_105
*248 FILLER_4_23
*249 FILLER_4_27
*250 FILLER_4_29
*251 FILLER_4_63
*252 FILLER_4_73
*253 FILLER_4_85
*254 FILLER_4_97
*255 FILLER_5_24
*256 FILLER_5_65
*257 FILLER_5_77
*258 FILLER_5_8
*259 FILLER_5_86
*260 FILLER_6_105
*261 FILLER_6_25
*262 FILLER_6_29
*263 FILLER_6_41
*264 FILLER_6_59
*265 FILLER_6_67
*266 FILLER_6_8
*267 FILLER_7_10
*268 FILLER_7_104
*269 FILLER_7_31
*270 FILLER_7_35
*271 FILLER_7_67
*272 FILLER_7_84
*273 FILLER_7_92
*274 FILLER_8_101
*275 FILLER_8_11
*276 FILLER_8_25
*277 FILLER_8_29
*278 FILLER_8_37
*279 FILLER_8_80
*280 FILLER_8_85
*281 FILLER_8_97
*282 FILLER_9_31
*283 FILLER_9_57
*284 FILLER_9_69
*285 FILLER_9_81
*286 FILLER_9_87
*287 PHY_EDGE_ROW_0_Left_18
*288 PHY_EDGE_ROW_0_Right_0
*289 PHY_EDGE_ROW_10_Left_28
*290 PHY_EDGE_ROW_10_Right_10
*291 PHY_EDGE_ROW_11_Left_29
*292 PHY_EDGE_ROW_11_Right_11
*293 PHY_EDGE_ROW_12_Left_30
*294 PHY_EDGE_ROW_12_Right_12
*295 PHY_EDGE_ROW_13_Left_31
*296 PHY_EDGE_ROW_13_Right_13
*297 PHY_EDGE_ROW_14_Left_32
*298 PHY_EDGE_ROW_14_Right_14
*299 PHY_EDGE_ROW_15_Left_33
*300 PHY_EDGE_ROW_15_Right_15
*301 PHY_EDGE_ROW_16_Left_34
*302 PHY_EDGE_ROW_16_Right_16
*303 PHY_EDGE_ROW_17_Left_35
*304 PHY_EDGE_ROW_17_Right_17
*305 PHY_EDGE_ROW_1_Left_19
*306 PHY_EDGE_ROW_1_Right_1
*307 PHY_EDGE_ROW_2_Left_20
*308 PHY_EDGE_ROW_2_Right_2
*309 PHY_EDGE_ROW_3_Left_21
*310 PHY_EDGE_ROW_3_Right_3
*311 PHY_EDGE_ROW_4_Left_22
*312 PHY_EDGE_ROW_4_Right_4
*313 PHY_EDGE_ROW_5_Left_23
*314 PHY_EDGE_ROW_5_Right_5
*315 PHY_EDGE_ROW_6_Left_24
*316 PHY_EDGE_ROW_6_Right_6
*317 PHY_EDGE_ROW_7_Left_25
*318 PHY_EDGE_ROW_7_Right_7
*319 PHY_EDGE_ROW_8_Left_26
*320 PHY_EDGE_ROW_8_Right_8
*321 PHY_EDGE_ROW_9_Left_27
*322 PHY_EDGE_ROW_9_Right_9
*323 TAP_TAPCELL_ROW_0_36
*324 TAP_TAPCELL_ROW_0_37
*325 TAP_TAPCELL_ROW_0_38
*326 TAP_TAPCELL_ROW_10_52
*327 TAP_TAPCELL_ROW_10_53
*328 TAP_TAPCELL_ROW_11_54
*329 TAP_TAPCELL_ROW_12_55
*330 TAP_TAPCELL_ROW_12_56
*331 TAP_TAPCELL_ROW_13_57
*332 TAP_TAPCELL_ROW_14_58
*333 TAP_TAPCELL_ROW_14_59
*334 TAP_TAPCELL_ROW_15_60
*335 TAP_TAPCELL_ROW_16_61
*336 TAP_TAPCELL_ROW_16_62
*337 TAP_TAPCELL_ROW_17_63
*338 TAP_TAPCELL_ROW_17_64
*339 TAP_TAPCELL_ROW_17_65
*340 TAP_TAPCELL_ROW_1_39
*341 TAP_TAPCELL_ROW_2_40
*342 TAP_TAPCELL_ROW_2_41
*343 TAP_TAPCELL_ROW_3_42
*344 TAP_TAPCELL_ROW_4_43
*345 TAP_TAPCELL_ROW_4_44
*346 TAP_TAPCELL_ROW_5_45
*347 TAP_TAPCELL_ROW_6_46
*348 TAP_TAPCELL_ROW_6_47
*349 TAP_TAPCELL_ROW_7_48
*350 TAP_TAPCELL_ROW_8_49
*351 TAP_TAPCELL_ROW_8_50
*352 TAP_TAPCELL_ROW_9_51
*353 _046_
*354 _047_
*355 _048_
*356 _049_
*357 _050_
*358 _051_
*359 _052_
*360 _053_
*361 _054_
*362 _055_
*363 _056_
*364 _057_
*365 _058_
*366 _059_
*367 _060_
*368 _061_
*369 _062_
*370 _063_
*371 _064_
*372 _065_
*373 _066_
*374 _067_
*375 _068_
*376 _069_
*377 _070_
*378 _071_
*379 _072_
*380 _073_
*381 _074_
*382 _075_
*383 _076_
*384 _077_
*385 _078_
*386 _079_
*387 _080_
*388 _081_
*389 _082_
*390 _083_
*391 _084_
*392 _085_
*393 _086_
*394 _087_
*395 _088_
*396 _089_
*397 _090_
*398 _091_
*399 _092_
*400 _093_
*401 _094_
*402 _095_
*403 _096_
*404 _097_
*405 _098_
*406 _099_
*407 _100_
*408 _101_
*409 _102_
*410 _103_
*411 _104_
*412 _105_
*413 _106_
*414 _107_
*415 _108_
*416 _109_
*417 _110_
*418 _111_
*419 _112_
*420 _113_
*421 _114_
*422 clkbuf_0_clk
*423 clkbuf_1_0__f_clk
*424 clkbuf_1_1__f_clk
*425 clkload0
*426 fanout23
*427 fanout24
*428 fanout25
*429 fanout26
*430 fanout27
*431 fanout28
*432 fanout29
*433 fanout30
*434 fanout31
*435 fanout32
*436 fanout33
*437 fanout34
*438 fanout35
*439 fanout36
*440 fanout37
*441 fanout38
*442 fanout39
*443 fanout40
*444 fanout41
*445 fanout42
*446 input1
*447 input10
*448 input11
*449 input12
*450 input13
*451 input14
*452 input15
*453 input16
*454 input17
*455 input18
*456 input2
*457 input3
*458 input4
*459 input5
*460 input6
*461 input7
*462 input8
*463 input9
*464 output19
*465 output20
*466 output21
*467 output22

*PORTS
clk I
data_serial_o[0] O
data_serial_o[1] O
fifo_data_i[0] I
fifo_data_i[10] I
fifo_data_i[11] I
fifo_data_i[12] I
fifo_data_i[13] I
fifo_data_i[14] I
fifo_data_i[15] I
fifo_data_i[1] I
fifo_data_i[2] I
fifo_data_i[3] I
fifo_data_i[4] I
fifo_data_i[5] I
fifo_data_i[6] I
fifo_data_i[7] I
fifo_data_i[8] I
fifo_data_i[9] I
fifo_empty_i I
fifo_rd_en_o O
rst_n I
valid_serial_o O

*D_NET *1 0.00559938
*CONN
*P clk I
*I *422:A I *D sky130_fd_sc_hd__clkbuf_16
*I *136:DIODE I *D sky130_fd_sc_hd__diode_2
*CAP
1 clk 0.00221753
2 *422:A 9.38244e-05
3 *136:DIODE 0
4 *1:11 0.00231135
5 *422:A *95:39 5.28427e-05
6 *1:11 *374:A1 9.32406e-05
7 *1:11 *401:D 0.000100823
8 *1:11 *403:D 7.38748e-05
9 *1:11 *405:CLK 0.000374038
10 *1:11 *405:D 2.72545e-05
11 *1:11 *423:A 0
12 *1:11 *441:A 0
13 *1:11 *22:13 0.000106495
14 *1:11 *73:71 0.000126439
15 *1:11 *107:58 0
16 *1:11 *111:25 0
17 *1:11 *127:10 2.16719e-05
*RES
1 clk *1:11 31.988 
2 *1:11 *136:DIODE 9.3 
3 *1:11 *422:A 10.675 
*END

*D_NET *2 0.000683973
*CONN
*P data_serial_o[0] O
*I *464:X O *D sky130_fd_sc_hd__buf_4
*CAP
1 data_serial_o[0] 0.000341986
2 *464:X 0.000341986
*RES
1 *464:X data_serial_o[0] 18.7147 
*END

*D_NET *3 0.00077626
*CONN
*P data_serial_o[1] O
*I *465:X O *D sky130_fd_sc_hd__buf_4
*CAP
1 data_serial_o[1] 0.000358267
2 *465:X 0.000358267
3 data_serial_o[1] *465:A 5.97254e-05
*RES
1 *465:X data_serial_o[1] 19.5533 
*END

*D_NET *4 0.00127054
*CONN
*P fifo_data_i[0] I
*I *446:A I *D sky130_fd_sc_hd__clkbuf_1
*I *146:DIODE I *D sky130_fd_sc_hd__diode_2
*CAP
1 fifo_data_i[0] 8.18208e-05
2 *446:A 0.000172606
3 *146:DIODE 0.000129835
4 *4:9 0.000384261
5 *146:DIODE *145:DIODE 0.000142856
6 *146:DIODE *445:A 5.71472e-05
7 *146:DIODE *22:13 5.33005e-05
8 *446:A *154:DIODE 3.67142e-05
9 *446:A *73:87 5.19614e-05
10 *4:9 *11:13 7.61097e-05
11 *4:9 *22:13 7.92798e-05
12 *4:9 *73:87 4.64488e-06
*RES
1 fifo_data_i[0] *4:9 4.10665 
2 *4:9 *146:DIODE 16.3893 
3 *4:9 *446:A 17.1036 
*END

*D_NET *5 0.00124187
*CONN
*P fifo_data_i[10] I
*I *456:A I *D sky130_fd_sc_hd__clkbuf_1
*I *147:DIODE I *D sky130_fd_sc_hd__diode_2
*CAP
1 fifo_data_i[10] 6.85089e-05
2 *456:A 0.000211408
3 *147:DIODE 0.000148697
4 *5:9 0.000428614
5 *147:DIODE *143:DIODE 0.00014285
6 *147:DIODE *388:B1 5.52238e-05
7 *147:DIODE *19:13 5.52302e-05
8 *456:A *406:CLK 0
9 *5:9 *6:13 6.56721e-05
10 *5:9 *19:13 6.56721e-05
*RES
1 fifo_data_i[10] *5:9 4.03459 
2 *5:9 *147:DIODE 16.8 
3 *5:9 *456:A 17.5143 
*END

*D_NET *6 0.00102549
*CONN
*P fifo_data_i[11] I
*I *148:DIODE I *D sky130_fd_sc_hd__diode_2
*I *457:A I *D sky130_fd_sc_hd__clkbuf_1
*CAP
1 fifo_data_i[11] 0.000296901
2 *148:DIODE 7.65359e-05
3 *457:A 0
4 *6:13 0.000373437
5 *148:DIODE *392:B1 6.29133e-05
6 *148:DIODE *112:20 5.71472e-05
7 *6:13 *7:13 9.28876e-05
8 *6:13 *8:13 0
9 *6:13 *19:13 0
10 *6:13 *45:8 0
11 *5:9 *6:13 6.56721e-05
*RES
1 fifo_data_i[11] *6:13 11.4115 
2 *6:13 *457:A 9.3 
3 *6:13 *148:DIODE 11.0857 
*END

*D_NET *7 0.00140533
*CONN
*P fifo_data_i[12] I
*I *458:A I *D sky130_fd_sc_hd__clkbuf_1
*I *149:DIODE I *D sky130_fd_sc_hd__diode_2
*CAP
1 fifo_data_i[12] 0.000244792
2 *458:A 0
3 *149:DIODE 0.000186775
4 *7:13 0.000431567
5 *149:DIODE *151:DIODE 4.14279e-05
6 *149:DIODE *396:B1 0.00014183
7 *149:DIODE *460:A 3.99614e-06
8 *149:DIODE *9:13 7.32955e-05
9 *7:13 *8:13 8.97175e-05
10 *7:13 *9:13 9.90431e-05
11 *7:13 *45:8 0
12 *7:13 *112:20 0
13 *6:13 *7:13 9.28876e-05
*RES
1 fifo_data_i[12] *7:13 11.4466 
2 *7:13 *149:DIODE 13.1393 
3 *7:13 *458:A 9.3 
*END

*D_NET *8 0.000944934
*CONN
*P fifo_data_i[13] I
*I *150:DIODE I *D sky130_fd_sc_hd__diode_2
*I *459:A I *D sky130_fd_sc_hd__clkbuf_1
*CAP
1 fifo_data_i[13] 0.000260961
2 *150:DIODE 6.77805e-05
3 *459:A 0
4 *8:13 0.000328741
5 *150:DIODE *396:B1 2.27416e-05
6 *8:13 *396:B1 0
7 *8:13 *9:13 0.000174992
8 *6:13 *8:13 0
9 *7:13 *8:13 8.97175e-05
*RES
1 fifo_data_i[13] *8:13 11.4115 
2 *8:13 *459:A 9.3 
3 *8:13 *150:DIODE 10.6571 
*END

*D_NET *9 0.00132956
*CONN
*P fifo_data_i[14] I
*I *151:DIODE I *D sky130_fd_sc_hd__diode_2
*I *460:A I *D sky130_fd_sc_hd__clkbuf_1
*CAP
1 fifo_data_i[14] 0.00030978
2 *151:DIODE 4.47242e-05
3 *460:A 2.06112e-05
4 *9:13 0.000375115
5 *151:DIODE *370:B1 5.52302e-05
6 *151:DIODE *396:B1 5.52302e-05
7 *9:13 *10:17 7.61097e-05
8 *149:DIODE *151:DIODE 4.14279e-05
9 *149:DIODE *460:A 3.99614e-06
10 *149:DIODE *9:13 7.32955e-05
11 *7:13 *9:13 9.90431e-05
12 *8:13 *9:13 0.000174992
*RES
1 fifo_data_i[14] *9:13 13.6245 
2 *9:13 *460:A 9.72857 
3 *9:13 *151:DIODE 10.6571 
*END

*D_NET *10 0.00282168
*CONN
*P fifo_data_i[15] I
*I *152:DIODE I *D sky130_fd_sc_hd__diode_2
*I *461:A I *D sky130_fd_sc_hd__clkbuf_1
*CAP
1 fifo_data_i[15] 0.000438654
2 *152:DIODE 4.58158e-05
3 *461:A 2.06112e-05
4 *10:17 0.000505081
5 *152:DIODE *144:DIODE 0.000144773
6 *152:DIODE *371:B1 3.48705e-05
7 *152:DIODE *20:15 6.58597e-05
8 *152:DIODE *106:10 0.000363837
9 *461:A *20:15 3.99614e-06
10 *10:17 fifo_rd_en_o 0.000144773
11 *10:17 *437:A 0.000186662
12 *10:17 *466:A 0
13 *10:17 *20:15 0.000514426
14 *10:17 *106:10 0.000276211
15 *9:13 *10:17 7.61097e-05
*RES
1 fifo_data_i[15] *10:17 18.3924 
2 *10:17 *461:A 9.72857 
3 *10:17 *152:DIODE 12.7107 
*END

*D_NET *11 0.00139184
*CONN
*P fifo_data_i[1] I
*I *153:DIODE I *D sky130_fd_sc_hd__diode_2
*I *462:A I *D sky130_fd_sc_hd__clkbuf_1
*CAP
1 fifo_data_i[1] 0.000248513
2 *153:DIODE 1.86989e-05
3 *462:A 2.23854e-05
4 *11:13 0.000289597
5 *153:DIODE *374:B1 0.000131439
6 *153:DIODE *376:B1 8.07313e-05
7 *11:13 *154:DIODE 0.000128154
8 *11:13 *374:B1 5.71472e-05
9 *11:13 *376:B1 3.18676e-05
10 *11:13 *463:A 5.33005e-05
11 *11:13 *12:9 9.28876e-05
12 *11:13 *22:13 0
13 *11:13 *73:87 0.000161013
14 *4:9 *11:13 7.61097e-05
*RES
1 fifo_data_i[1] *11:13 12.3401 
2 *11:13 *462:A 9.72857 
3 *11:13 *153:DIODE 10.6571 
*END

*D_NET *12 0.00129226
*CONN
*P fifo_data_i[2] I
*I *463:A I *D sky130_fd_sc_hd__clkbuf_1
*I *154:DIODE I *D sky130_fd_sc_hd__diode_2
*CAP
1 fifo_data_i[2] 9.05446e-05
2 *463:A 5.92672e-05
3 *154:DIODE 0.000258188
4 *12:9 0.000408
5 *154:DIODE *372:B2 5.71472e-05
6 *154:DIODE *73:87 1.01075e-05
7 *12:9 *13:13 8.97175e-05
8 *12:9 *73:87 8.23597e-06
9 *446:A *154:DIODE 3.67142e-05
10 *11:13 *154:DIODE 0.000128154
11 *11:13 *463:A 5.33005e-05
12 *11:13 *12:9 9.28876e-05
*RES
1 fifo_data_i[2] *12:9 4.17872 
2 *12:9 *154:DIODE 17.925 
3 *12:9 *463:A 14.7464 
*END

*D_NET *13 0.000962415
*CONN
*P fifo_data_i[3] I
*I *137:DIODE I *D sky130_fd_sc_hd__diode_2
*I *447:A I *D sky130_fd_sc_hd__clkbuf_1
*CAP
1 fifo_data_i[3] 0.000244578
2 *137:DIODE 5.7669e-05
3 *447:A 0
4 *13:13 0.000302247
5 *137:DIODE *73:81 7.17235e-05
6 *13:13 *404:CLK 2.42103e-05
7 *13:13 *14:13 9.28876e-05
8 *13:13 *73:81 6.05161e-06
9 *13:13 *73:83 7.33295e-05
10 *12:9 *13:13 8.97175e-05
*RES
1 fifo_data_i[3] *13:13 11.7501 
2 *13:13 *447:A 9.3 
3 *13:13 *137:DIODE 10.6571 
*END

*D_NET *14 0.000976814
*CONN
*P fifo_data_i[4] I
*I *138:DIODE I *D sky130_fd_sc_hd__diode_2
*I *448:A I *D sky130_fd_sc_hd__clkbuf_1
*CAP
1 fifo_data_i[4] 0.00022915
2 *138:DIODE 7.0562e-05
3 *448:A 0
4 *14:13 0.000299712
5 *138:DIODE *81:18 3.18676e-05
6 *14:13 *404:CLK 0.000162918
7 *14:13 *15:13 8.97175e-05
8 *14:13 *16:13 0
9 *13:13 *14:13 9.28876e-05
*RES
1 fifo_data_i[4] *14:13 11.1079 
2 *14:13 *448:A 9.3 
3 *14:13 *138:DIODE 10.6571 
*END

*D_NET *15 0.00121428
*CONN
*P fifo_data_i[5] I
*I *139:DIODE I *D sky130_fd_sc_hd__diode_2
*I *449:A I *D sky130_fd_sc_hd__clkbuf_1
*CAP
1 fifo_data_i[5] 0.000232399
2 *139:DIODE 4.16649e-05
3 *449:A 0
4 *15:13 0.000274064
5 *139:DIODE *141:DIODE 0.000144773
6 *139:DIODE *380:B1 4.58976e-05
7 *139:DIODE *404:CLK 0.000117621
8 *15:13 *141:DIODE 9.90431e-05
9 *15:13 *404:CLK 7.93811e-05
10 *15:13 *16:13 8.97175e-05
11 *15:13 *83:20 0
12 *14:13 *15:13 8.97175e-05
*RES
1 fifo_data_i[5] *15:13 11.7501 
2 *15:13 *449:A 9.3 
3 *15:13 *139:DIODE 11.4786 
*END

*D_NET *16 0.00123024
*CONN
*P fifo_data_i[6] I
*I *140:DIODE I *D sky130_fd_sc_hd__diode_2
*I *450:A I *D sky130_fd_sc_hd__clkbuf_1
*CAP
1 fifo_data_i[6] 0.000304678
2 *140:DIODE 6.19363e-05
3 *450:A 2.23854e-05
4 *16:13 0.000388999
5 *140:DIODE *384:B1 8.07313e-05
6 *16:13 *141:DIODE 0.000104974
7 *16:13 *384:B1 3.18676e-05
8 *16:13 *451:A 5.52302e-05
9 *16:13 *17:9 8.97175e-05
10 *16:13 *18:13 0
11 *16:13 *45:8 0
12 *16:13 *83:20 0
13 *14:13 *16:13 0
14 *15:13 *16:13 8.97175e-05
*RES
1 fifo_data_i[6] *16:13 12.0365 
2 *16:13 *450:A 9.72857 
3 *16:13 *140:DIODE 10.6571 
*END

*D_NET *17 0.00134981
*CONN
*P fifo_data_i[7] I
*I *451:A I *D sky130_fd_sc_hd__clkbuf_1
*I *141:DIODE I *D sky130_fd_sc_hd__diode_2
*CAP
1 fifo_data_i[7] 0.00011585
2 *451:A 5.19844e-05
3 *141:DIODE 0.000186768
4 *17:9 0.000354603
5 *141:DIODE *380:B1 5.71472e-05
6 *141:DIODE *45:8 0
7 *17:9 *18:13 8.97175e-05
8 *17:9 *45:8 0
9 *139:DIODE *141:DIODE 0.000144773
10 *15:13 *141:DIODE 9.90431e-05
11 *16:13 *141:DIODE 0.000104974
12 *16:13 *451:A 5.52302e-05
13 *16:13 *17:9 8.97175e-05
*RES
1 fifo_data_i[7] *17:9 4.48229 
2 *17:9 *141:DIODE 18.05 
3 *17:9 *451:A 14.7464 
*END

*D_NET *18 0.000927951
*CONN
*P fifo_data_i[8] I
*I *142:DIODE I *D sky130_fd_sc_hd__diode_2
*I *452:A I *D sky130_fd_sc_hd__clkbuf_1
*CAP
1 fifo_data_i[8] 0.000238505
2 *142:DIODE 0.00011341
3 *452:A 0
4 *18:13 0.000351915
5 *18:13 *386:B1 2.79092e-05
6 *18:13 *406:CLK 0
7 *18:13 *19:13 0.000106495
8 *16:13 *18:13 0
9 *17:9 *18:13 8.97175e-05
*RES
1 fifo_data_i[8] *18:13 11.1079 
2 *18:13 *452:A 9.3 
3 *18:13 *142:DIODE 11.0679 
*END

*D_NET *19 0.00110941
*CONN
*P fifo_data_i[9] I
*I *143:DIODE I *D sky130_fd_sc_hd__diode_2
*I *453:A I *D sky130_fd_sc_hd__clkbuf_1
*CAP
1 fifo_data_i[9] 0.000261874
2 *143:DIODE 8.11133e-05
3 *453:A 0
4 *19:13 0.000342987
5 *143:DIODE *388:B1 5.31902e-05
6 *19:13 *406:CLK 0
7 *147:DIODE *143:DIODE 0.00014285
8 *147:DIODE *19:13 5.52302e-05
9 *5:9 *19:13 6.56721e-05
10 *6:13 *19:13 0
11 *18:13 *19:13 0.000106495
*RES
1 fifo_data_i[9] *19:13 11.4115 
2 *19:13 *453:A 9.3 
3 *19:13 *143:DIODE 11.4786 
*END

*D_NET *20 0.00212531
*CONN
*P fifo_empty_i I
*I *144:DIODE I *D sky130_fd_sc_hd__diode_2
*I *454:A I *D sky130_fd_sc_hd__clkbuf_1
*CAP
1 fifo_empty_i 0.000420932
2 *144:DIODE 1.83778e-05
3 *454:A 0
4 *20:15 0.00043931
5 *144:DIODE *371:B1 7.32955e-05
6 *20:15 fifo_rd_en_o 8.58799e-05
7 *20:15 *371:B1 5.71472e-05
8 *20:15 *437:A 0.000186662
9 *20:15 *466:A 0
10 *20:15 *107:29 0.000114655
11 *152:DIODE *144:DIODE 0.000144773
12 *152:DIODE *20:15 6.58597e-05
13 *461:A *20:15 3.99614e-06
14 *10:17 *20:15 0.000514426
*RES
1 fifo_empty_i *20:15 17.3394 
2 *20:15 *454:A 9.3 
3 *20:15 *144:DIODE 10.6571 
*END

*D_NET *21 0.000933856
*CONN
*P fifo_rd_en_o O
*I *466:X O *D sky130_fd_sc_hd__buf_4
*CAP
1 fifo_rd_en_o 0.000351601
2 *466:X 0.000351601
3 *10:17 fifo_rd_en_o 0.000144773
4 *20:15 fifo_rd_en_o 8.58799e-05
*RES
1 *466:X fifo_rd_en_o 21.5329 
*END

*D_NET *22 0.00121242
*CONN
*P rst_n I
*I *145:DIODE I *D sky130_fd_sc_hd__diode_2
*I *455:A I *D sky130_fd_sc_hd__clkbuf_1
*CAP
1 rst_n 0.000212237
2 *145:DIODE 8.66752e-05
3 *455:A 0
4 *22:13 0.000298913
5 *145:DIODE *445:A 4.43256e-05
6 *22:13 *73:87 0.000188336
7 *146:DIODE *145:DIODE 0.000142856
8 *146:DIODE *22:13 5.33005e-05
9 *1:11 *22:13 0.000106495
10 *4:9 *22:13 7.92798e-05
11 *11:13 *22:13 0
*RES
1 rst_n *22:13 11.4115 
2 *22:13 *455:A 9.3 
3 *22:13 *145:DIODE 11.4786 
*END

*D_NET *23 0.000765896
*CONN
*P valid_serial_o O
*I *467:X O *D sky130_fd_sc_hd__buf_4
*CAP
1 valid_serial_o 0.000382948
2 *467:X 0.000382948
*RES
1 *467:X valid_serial_o 19.3218 
*END

*D_NET *26 0.000457946
*CONN
*I *399:D I *D sky130_fd_sc_hd__dfrtp_1
*I *372:X O *D sky130_fd_sc_hd__a22o_1
*CAP
1 *399:D 0.000115431
2 *372:X 0.000115431
3 *399:D *372:A1 9.90431e-05
4 *399:D *373:A1 9.55163e-05
5 *399:D *400:RESET_B 4.1331e-06
6 *399:D *110:10 2.83916e-05
*RES
1 *372:X *399:D 29.8857 
*END

*D_NET *27 0.00075129
*CONN
*I *400:D I *D sky130_fd_sc_hd__dfrtp_1
*I *373:X O *D sky130_fd_sc_hd__a22o_1
*CAP
1 *400:D 0.000353537
2 *373:X 0.000353537
3 *400:D *372:B2 1.00073e-05
4 *400:D *373:B2 5.30637e-06
5 *400:D *73:87 0
6 *400:D *73:102 2.89016e-05
*RES
1 *373:X *400:D 33.35 
*END

*D_NET *28 0.000406833
*CONN
*I *401:D I *D sky130_fd_sc_hd__dfrtp_1
*I *375:X O *D sky130_fd_sc_hd__mux2_1
*CAP
1 *401:D 8.80324e-05
2 *375:X 8.80324e-05
3 *401:D *115:23 5.33005e-05
4 *401:D *127:10 7.6644e-05
5 *1:11 *401:D 0.000100823
*RES
1 *375:X *401:D 29.475 
*END

*D_NET *29 0.00074605
*CONN
*I *402:D I *D sky130_fd_sc_hd__dfrtp_1
*I *377:X O *D sky130_fd_sc_hd__mux2_1
*CAP
1 *402:D 0.00020581
2 *377:X 0.00020581
3 *402:D *376:B1 0.00033443
4 *402:D *45:8 0
*RES
1 *377:X *402:D 31.1179 
*END

*D_NET *30 0.000968321
*CONN
*I *403:D I *D sky130_fd_sc_hd__dfrtp_1
*I *379:X O *D sky130_fd_sc_hd__mux2_1
*CAP
1 *403:D 0.00032012
2 *379:X 0.00032012
3 *403:D *374:A1 3.69047e-06
4 *403:D *378:A2 2.8322e-05
5 *403:D *405:CLK 5.66157e-05
6 *403:D *73:71 0.000126439
7 *403:D *73:77 6.05161e-06
8 *403:D *104:72 3.30871e-05
9 *1:11 *403:D 7.38748e-05
*RES
1 *379:X *403:D 33.5643 
*END

*D_NET *31 0.000425035
*CONN
*I *404:D I *D sky130_fd_sc_hd__dfrtp_1
*I *381:X O *D sky130_fd_sc_hd__mux2_1
*CAP
1 *404:D 0.000162038
2 *381:X 0.000162038
3 *404:D *380:B1 0
4 *404:D *45:8 0
5 *404:D *81:18 0.00010096
*RES
1 *381:X *404:D 30.1893 
*END

*D_NET *32 0.000571643
*CONN
*I *405:D I *D sky130_fd_sc_hd__dfrtp_1
*I *383:X O *D sky130_fd_sc_hd__mux2_1
*CAP
1 *405:D 0.000165546
2 *383:X 0.000165546
3 *405:D *405:CLK 8.44104e-05
4 *405:D *405:RESET_B 2.89016e-05
5 *405:D *81:18 9.99853e-05
6 *1:11 *405:D 2.72545e-05
*RES
1 *383:X *405:D 30.725 
*END

*D_NET *33 0.000715448
*CONN
*I *406:D I *D sky130_fd_sc_hd__dfrtp_1
*I *385:X O *D sky130_fd_sc_hd__mux2_1
*CAP
1 *406:D 0.00028298
2 *385:X 0.00028298
3 *406:D *384:B1 0.000149489
4 *406:D *45:8 0
*RES
1 *385:X *406:D 31.8321 
*END

*D_NET *34 0.000652861
*CONN
*I *407:D I *D sky130_fd_sc_hd__dfrtp_1
*I *387:X O *D sky130_fd_sc_hd__mux2_1
*CAP
1 *407:D 0.000232698
2 *387:X 0.000232698
3 *407:D *386:B1 0.000187465
4 *407:D *111:63 0
*RES
1 *387:X *407:D 30.7071 
*END

*D_NET *35 0.000770542
*CONN
*I *408:D I *D sky130_fd_sc_hd__dfrtp_1
*I *389:X O *D sky130_fd_sc_hd__mux2_1
*CAP
1 *408:D 0.000203861
2 *389:X 0.000203861
3 *408:D *388:B1 0.000229456
4 *408:D *406:CLK 3.2534e-05
5 *408:D *45:8 0.000100831
*RES
1 *389:X *408:D 31.1179 
*END

*D_NET *36 0.000455349
*CONN
*I *409:D I *D sky130_fd_sc_hd__dfrtp_1
*I *391:X O *D sky130_fd_sc_hd__mux2_1
*CAP
1 *409:D 0.00015063
2 *391:X 0.00015063
3 *409:D *409:CLK 2.59355e-05
4 *409:D *74:16 0.000128154
5 *409:D *115:36 0
*RES
1 *391:X *409:D 30.3143 
*END

*D_NET *37 0.000511293
*CONN
*I *410:D I *D sky130_fd_sc_hd__dfrtp_1
*I *393:X O *D sky130_fd_sc_hd__mux2_1
*CAP
1 *410:D 0.000168339
2 *393:X 0.000168339
3 *410:D *370:B1 0.00010096
4 *410:D *410:CLK 1.41706e-05
5 *410:D *410:RESET_B 5.9483e-05
6 *410:D *107:29 0
*RES
1 *393:X *410:D 30.7964 
*END

*D_NET *38 0.000600833
*CONN
*I *411:D I *D sky130_fd_sc_hd__dfrtp_1
*I *395:X O *D sky130_fd_sc_hd__mux2_1
*CAP
1 *411:D 0.000248502
2 *395:X 0.000248502
3 *411:D *47:16 7.43578e-06
4 *411:D *74:126 2.89016e-05
5 *411:D *105:8 0
6 *411:D *115:51 6.74911e-05
*RES
1 *395:X *411:D 32.2429 
*END

*D_NET *39 0.000658715
*CONN
*I *412:D I *D sky130_fd_sc_hd__dfrtp_1
*I *397:X O *D sky130_fd_sc_hd__mux2_1
*CAP
1 *412:D 0.000260044
2 *397:X 0.000260044
3 *412:D *47:16 5.65955e-05
4 *412:D *74:140 8.20304e-05
*RES
1 *397:X *412:D 31.3679 
*END

*D_NET *40 0.000918081
*CONN
*I *393:A1 I *D sky130_fd_sc_hd__mux2_1
*I *392:X O *D sky130_fd_sc_hd__a32o_1
*CAP
1 *393:A1 0.000126021
2 *392:X 0.000126021
3 *393:A1 *392:A3 9.90367e-05
4 *393:A1 *427:A 6.93048e-05
5 *393:A1 *100:61 3.58705e-05
6 *393:A1 *112:20 0.00030926
7 *393:A1 *135:24 0.000152567
*RES
1 *392:X *393:A1 31.9393 
*END

*D_NET *41 0.000999458
*CONN
*I *395:A1 I *D sky130_fd_sc_hd__mux2_1
*I *394:X O *D sky130_fd_sc_hd__a32o_1
*CAP
1 *395:A1 0.000267264
2 *394:X 0.000267264
3 *395:A1 *74:87 0.000360894
4 *395:A1 *104:28 7.83659e-05
5 *395:A1 *115:51 2.56694e-05
*RES
1 *394:X *395:A1 32.0464 
*END

*D_NET *42 0.000621815
*CONN
*I *397:A1 I *D sky130_fd_sc_hd__mux2_1
*I *396:X O *D sky130_fd_sc_hd__a32o_1
*CAP
1 *397:A1 0.00015124
2 *396:X 0.00015124
3 *397:A1 *397:S 0.000183726
4 *397:A1 *46:24 7.03393e-05
5 *397:A1 *74:140 6.52701e-05
*RES
1 *396:X *397:A1 31.0107 
*END

*D_NET *43 0.00344265
*CONN
*I *440:A I *D sky130_fd_sc_hd__clkbuf_2
*I *439:A I *D sky130_fd_sc_hd__dlymetal6s2s_1
*I *353:Y O *D sky130_fd_sc_hd__inv_2
*CAP
1 *440:A 0
2 *439:A 0.000728543
3 *353:Y 4.85025e-05
4 *43:6 0.000777046
5 *439:A *386:A1 0.000393991
6 *439:A *386:B2 0.000192214
7 *439:A *394:B2 0.000103041
8 *439:A *396:A3 3.12359e-05
9 *439:A *418:CLK 0
10 *439:A *418:D 0
11 *439:A *424:A 0.000216297
12 *439:A *95:18 0.000175892
13 *439:A *95:20 6.35892e-05
14 *439:A *95:22 0.000129842
15 *439:A *97:31 0.000121842
16 *439:A *106:31 0
17 *439:A *108:36 0.000102207
18 *439:A *133:8 4.01768e-05
19 *439:A *135:12 6.87574e-05
20 *43:6 *97:19 0.000141729
21 *43:6 *109:25 1.21258e-05
22 *43:6 *112:20 9.56151e-05
*RES
1 *353:Y *43:6 11.0679 
2 *43:6 *439:A 46.8893 
3 *43:6 *440:A 9.3 
*END

*D_NET *44 0.00100332
*CONN
*I *364:A1 I *D sky130_fd_sc_hd__a31o_1
*I *354:Y O *D sky130_fd_sc_hd__inv_2
*CAP
1 *364:A1 0.000154141
2 *354:Y 0.000154141
3 *364:A1 *99:8 0.000357952
4 *364:A1 *104:42 0.000228558
5 *364:A1 *104:72 1.98839e-05
6 *364:A1 *113:33 8.86413e-05
*RES
1 *354:Y *364:A1 23.6536 
*END

*D_NET *45 0.00489335
*CONN
*I *372:A2 I *D sky130_fd_sc_hd__a22o_1
*I *373:A2 I *D sky130_fd_sc_hd__a22o_1
*I *355:Y O *D sky130_fd_sc_hd__nor2_1
*CAP
1 *372:A2 0.000306558
2 *373:A2 5.66697e-05
3 *355:Y 0.00168757
4 *45:8 0.0020508
5 *372:A2 *372:A1 1.72514e-05
6 *372:A2 *372:B2 0.000230482
7 *372:A2 *373:B1 2.82423e-05
8 *372:A2 *104:72 8.89967e-05
9 *373:A2 *373:B2 2.84494e-05
10 *373:A2 *73:87 0
11 *45:8 *356:A 0
12 *45:8 *373:B2 3.57844e-05
13 *45:8 *376:B1 0
14 *45:8 *377:A0 0
15 *45:8 *377:S 0
16 *45:8 *380:A1 0
17 *45:8 *380:B1 0
18 *45:8 *385:A1 0
19 *45:8 *385:S 0
20 *45:8 *388:A2 0
21 *45:8 *396:B1 7.2754e-05
22 *45:8 *404:CLK 0
23 *45:8 *406:CLK 0
24 *45:8 *46:8 0
25 *45:8 *73:83 0
26 *45:8 *73:87 0
27 *45:8 *83:20 0.000188966
28 *45:8 *104:72 0
29 *45:8 *112:20 0
30 *141:DIODE *45:8 0
31 *402:D *45:8 0
32 *404:D *45:8 0
33 *406:D *45:8 0
34 *408:D *45:8 0.000100831
35 *6:13 *45:8 0
36 *7:13 *45:8 0
37 *16:13 *45:8 0
38 *17:9 *45:8 0
*RES
1 *355:Y *45:8 43.9786 
2 *45:8 *373:A2 14.8357 
3 *45:8 *372:A2 18.6571 
*END

*D_NET *46 0.00747086
*CONN
*I *438:A I *D sky130_fd_sc_hd__clkbuf_2
*I *395:S I *D sky130_fd_sc_hd__mux2_1
*I *391:S I *D sky130_fd_sc_hd__mux2_1
*I *356:X O *D sky130_fd_sc_hd__or2_1
*CAP
1 *438:A 0.000308556
2 *395:S 0.000186509
3 *391:S 0.000401779
4 *356:X 5.1253e-05
5 *46:24 0.0016413
6 *46:8 0.00141282
7 *391:S *371:A1 0
8 *391:S *371:A2 0
9 *391:S *371:B2 7.69776e-06
10 *391:S *386:B2 0.00017309
11 *391:S *391:A0 5.36293e-05
12 *391:S *391:A1 0.000125724
13 *391:S *394:A1 0
14 *391:S *394:B2 0.000383111
15 *391:S *105:8 0.000106656
16 *395:S *370:A2 4.38128e-05
17 *395:S *370:B1 0.000345359
18 *395:S *395:A0 0.00010096
19 *395:S *100:18 0.00053128
20 *438:A *356:A 2.94103e-05
21 *438:A *413:RESET_B 4.20528e-05
22 *438:A *437:A 7.90803e-05
23 *438:A *466:A 0
24 *438:A *92:12 0
25 *438:A *107:29 0
26 *46:8 *356:A 3.92757e-05
27 *46:24 *371:A1 0
28 *46:24 *397:S 0.00015314
29 *46:24 *410:RESET_B 4.92416e-05
30 *46:24 *429:A 0.000239712
31 *46:24 *47:16 0.000288666
32 *46:24 *74:140 0.000356022
33 *46:24 *92:25 5.03772e-05
34 *46:24 *105:8 6.5185e-05
35 *46:24 *124:12 5.20751e-05
36 *46:24 *135:46 8.27444e-05
37 *397:A1 *46:24 7.03393e-05
38 *45:8 *46:8 0
*RES
1 *356:X *46:8 14.8357 
2 *46:8 *46:24 29.3214 
3 *46:24 *391:S 23.6393 
4 *46:24 *395:S 20.9071 
5 *46:8 *438:A 19.6929 
*END

*D_NET *47 0.00511463
*CONN
*I *435:A I *D sky130_fd_sc_hd__clkbuf_2
*I *436:A I *D sky130_fd_sc_hd__buf_1
*I *358:X O *D sky130_fd_sc_hd__and2b_1
*CAP
1 *435:A 0.000331553
2 *436:A 0
3 *358:X 0.00115192
4 *47:16 0.00148347
5 *435:A *432:A 0.000144773
6 *435:A *100:12 5.52302e-05
7 *435:A *115:51 0.00040381
8 *47:16 *397:A0 0.000137983
9 *47:16 *397:S 0.00036675
10 *47:16 *410:RESET_B 9.21644e-05
11 *47:16 *74:126 3.07455e-05
12 *47:16 *74:140 0.000114902
13 *47:16 *105:8 8.16036e-05
14 *47:16 *115:51 0
15 *47:16 *126:12 0.000261858
16 *47:16 *135:46 0.000105163
17 *411:D *47:16 7.43578e-06
18 *412:D *47:16 5.65955e-05
19 *46:24 *47:16 0.000288666
*RES
1 *358:X *47:16 38.9964 
2 *47:16 *436:A 9.3 
3 *47:16 *435:A 16.8179 
*END

*D_NET *48 0.00242685
*CONN
*I *367:A_N I *D sky130_fd_sc_hd__and3b_1
*I *360:B I *D sky130_fd_sc_hd__and2b_1
*I *366:A2 I *D sky130_fd_sc_hd__o31a_1
*I *359:Y O *D sky130_fd_sc_hd__nor2_1
*CAP
1 *367:A_N 0.000196325
2 *360:B 6.11051e-05
3 *366:A2 8.36933e-05
4 *359:Y 0
5 *48:19 0.000365543
6 *48:4 0.000191806
7 *360:B *360:A_N 0.000178847
8 *360:B *368:A2 2.95726e-05
9 *360:B *368:B1 2.89016e-05
10 *366:A2 *361:D 2.28598e-05
11 *366:A2 *76:23 5.33005e-05
12 *366:A2 *104:28 5.52302e-05
13 *366:A2 *104:36 0.000110029
14 *367:A_N *360:A_N 9.41642e-05
15 *367:A_N *365:A 5.52238e-05
16 *367:A_N *367:C 6.86792e-05
17 *367:A_N *368:A1 5.33005e-05
18 *367:A_N *368:A2 8.43535e-06
19 *367:A_N *434:A 0.000218019
20 *367:A_N *75:32 0.00022117
21 *367:A_N *77:14 2.44318e-05
22 *367:A_N *103:27 3.97677e-05
23 *48:19 *359:A 5.52238e-05
24 *48:19 *361:D 2.44318e-05
25 *48:19 *369:A_N 1.69115e-05
26 *48:19 *434:A 0.00010516
27 *48:19 *75:32 1.69115e-05
28 *48:19 *104:36 4.78056e-05
*RES
1 *359:Y *48:4 9.3 
2 *48:4 *366:A2 11.4786 
3 *48:4 *48:19 11.8929 
4 *48:19 *360:B 11.0679 
5 *48:19 *367:A_N 24.2821 
*END

*D_NET *49 0.00218363
*CONN
*I *369:A_N I *D sky130_fd_sc_hd__and3b_1
*I *368:A2 I *D sky130_fd_sc_hd__a311o_1
*I *360:X O *D sky130_fd_sc_hd__and2b_1
*CAP
1 *369:A_N 0.000461309
2 *368:A2 0.000167191
3 *360:X 0
4 *49:4 0.0006285
5 *368:A2 *360:A_N 1.97695e-05