*SPEF "ieee 1481-1999"
*DESIGN "piso"
*DATE "02:23:38 Saturday January 24, 2026"
*VENDOR "The OpenROAD Project"
*PROGRAM "OpenROAD"
*VERSION "edf00dff99f6c40d67a30c0e22a8191c5d2ed9d6"
*DESIGN_FLOW "NAME_SCOPE LOCAL" "PIN_CAP NONE"
*DIVIDER /
*DELIMITER :
*BUS_DELIMITER []
*T_UNIT 1 NS
*C_UNIT 1 PF
*R_UNIT 1 OHM
*L_UNIT 1 HENRY

*NAME_MAP
*1 clk
*2 data_serial_o[0]
*3 data_serial_o[1]
*4 fifo_data_i[0]
*5 fifo_data_i[10]
*6 fifo_data_i[11]
*7 fifo_data_i[12]
*8 fifo_data_i[13]
*9 fifo_data_i[14]
*10 fifo_data_i[15]
*11 fifo_data_i[1]
*12 fifo_data_i[2]
*13 fifo_data_i[3]
*14 fifo_data_i[4]
*15 fifo_data_i[5]
*16 fifo_data_i[6]
*17 fifo_data_i[7]
*18 fifo_data_i[8]
*19 fifo_data_i[9]
*20 fifo_empty_i
*21 fifo_rd_en_o
*22 rst_n
*23 valid_serial_o
*26 _000_
*27 _001_
*28 _002_
*29 _003_
*30 _004_
*31 _005_
*32 _006_
*33 _007_
*34 _008_
*35 _009_
*36 _010_
*37 _011_
*38 _012_
*39 _013_
*40 _014_
*41 _015_
*42 _016_
*43 _017_
*44 _018_
*45 _019_
*46 _020_
*47 _021_
*48 _022_
*49 _023_
*50 _024_
*51 _025_
*52 _026_
*53 _027_
*54 _028_
*55 _029_
*56 _030_
*57 _031_
*58 _032_
*59 _033_
*60 _034_
*61 _035_
*62 _036_
*63 _037_
*64 _038_
*65 _039_
*66 _040_
*67 _041_
*68 _042_
*69 _043_
*70 _044_
*71 _045_
*72 clknet_0_clk
*73 clknet_1_0__leaf_clk
*74 clknet_1_1__leaf_clk
*75 count\[0\]
*76 count\[1\]
*77 count\[2\]
*78 count\[3\]
*79 net1
*80 net10
*81 net11
*82 net12
*83 net13
*84 net14
*85 net15
*86 net16
*87 net17
*88 net18
*89 net19
*90 net2
*91 net20
*92 net21
*93 net22
*94 net23
*95 net24
*96 net25
*97 net26
*98 net27
*99 net28
*100 net29
*101 net3
*102 net30
*103 net31
*104 net32
*105 net33
*106 net34
*107 net35
*108 net36
*109 net37
*110 net38
*111 net39
*112 net4
*113 net40
*114 net41
*115 net42
*116 net5
*117 net6
*118 net7
*119 net8
*120 net9
*121 shift_reg\[10\]
*122 shift_reg\[11\]
*123 shift_reg\[12\]
*124 shift_reg\[13\]
*125 shift_reg\[14\]
*126 shift_reg\[15\]
*127 shift_reg\[2\]
*128 shift_reg\[3\]
*129 shift_reg\[4\]
*130 shift_reg\[5\]
*131 shift_reg\[6\]
*132 shift_reg\[7\]
*133 shift_reg\[8\]
*134 shift_reg\[9\]
*135 state\[1\]
*136 ANTENNA_clkbuf_0_clk_A
*137 ANTENNA_input10_A
*138 ANTENNA_input11_A
*139 ANTENNA_input12_A
*140 ANTENNA_input13_A
*141 ANTENNA_input14_A
*142 ANTENNA_input15_A
*143 ANTENNA_input16_A
*144 ANTENNA_input17_A
*145 ANTENNA_input18_A
*146 ANTENNA_input1_A
*147 ANTENNA_input2_A
*148 ANTENNA_input3_A
*149 ANTENNA_input4_A
*150 ANTENNA_input5_A
*151 ANTENNA_input6_A
*152 ANTENNA_input7_A
*153 ANTENNA_input8_A
*154 ANTENNA_input9_A
*155 FILLER_0_101
*156 FILLER_0_23
*157 FILLER_0_27
*158 FILLER_0_29
*159 FILLER_0_41
*160 FILLER_0_53
*161 FILLER_0_57
*162 FILLER_0_69
*163 FILLER_0_81
*164 FILLER_0_85
*165 FILLER_0_97
*166 FILLER_10_105
*167 FILLER_10_14
*168 FILLER_10_23
*169 FILLER_10_27
*170 FILLER_10_29
*171 FILLER_10_52
*172 FILLER_10_63
*173 FILLER_10_75
*174 FILLER_10_8
*175 FILLER_10_83
*176 FILLER_10_85
*177 FILLER_10_97
*178 FILLER_11_10
*179 FILLER_11_106
*180 FILLER_11_23
*181 FILLER_11_35
*182 FILLER_11_51
*183 FILLER_11_55
*184 FILLER_11_86
*185 FILLER_11_98
*186 FILLER_12_107
*187 FILLER_12_26
*188 FILLER_12_29
*189 FILLER_12_41
*190 FILLER_12_53
*191 FILLER_12_61
*192 FILLER_12_95
*193 FILLER_13_101
*194 FILLER_13_107
*195 FILLER_13_35
*196 FILLER_13_65
*197 FILLER_13_77
*198 FILLER_13_8
*199 FILLER_13_89
*200 FILLER_14_105
*201 FILLER_14_13
*202 FILLER_14_20
*203 FILLER_14_46
*204 FILLER_14_85
*205 FILLER_14_97
*206 FILLER_15_105
*207 FILLER_15_23
*208 FILLER_15_53
*209 FILLER_15_93
*210 FILLER_16_26
*211 FILLER_16_29
*212 FILLER_16_37
*213 FILLER_16_61
*214 FILLER_16_81
*215 FILLER_16_85
*216 FILLER_17_101
*217 FILLER_17_27
*218 FILLER_17_29
*219 FILLER_17_41
*220 FILLER_17_53
*221 FILLER_17_57
*222 FILLER_17_69
*223 FILLER_17_81
*224 FILLER_17_85
*225 FILLER_17_97
*226 FILLER_1_10
*227 FILLER_1_57
*228 FILLER_1_69
*229 FILLER_1_81
*230 FILLER_1_87
*231 FILLER_2_105
*232 FILLER_2_26
*233 FILLER_2_37
*234 FILLER_2_49
*235 FILLER_2_61
*236 FILLER_2_73
*237 FILLER_2_81
*238 FILLER_2_85
*239 FILLER_2_97
*240 FILLER_3_105
*241 FILLER_3_28
*242 FILLER_3_40
*243 FILLER_3_52
*244 FILLER_3_57
*245 FILLER_3_81
*246 FILLER_3_93
*247 FILLER_4_105
*248 FILLER_4_23
*249 FILLER_4_27
*250 FILLER_4_29
*251 FILLER_4_63
*252 FILLER_4_73
*253 FILLER_4_85
*254 FILLER_4_97
*255 FILLER_5_24
*256 FILLER_5_65
*257 FILLER_5_77
*258 FILLER_5_8
*259 FILLER_5_86
*260 FILLER_6_105
*261 FILLER_6_25
*262 FILLER_6_29
*263 FILLER_6_41
*264 FILLER_6_59
*265 FILLER_6_67
*266 FILLER_6_8
*267 FILLER_7_10
*268 FILLER_7_104
*269 FILLER_7_31
*270 FILLER_7_35
*271 FILLER_7_67
*272 FILLER_7_84
*273 FILLER_7_92
*274 FILLER_8_101
*275 FILLER_8_11
*276 FILLER_8_25
*277 FILLER_8_29
*278 FILLER_8_37
*279 FILLER_8_80
*280 FILLER_8_85
*281 FILLER_8_97
*282 FILLER_9_31
*283 FILLER_9_57
*284 FILLER_9_69
*285 FILLER_9_81
*286 FILLER_9_87
*287 PHY_EDGE_ROW_0_Left_18
*288 PHY_EDGE_ROW_0_Right_0
*289 PHY_EDGE_ROW_10_Left_28
*290 PHY_EDGE_ROW_10_Right_10
*291 PHY_EDGE_ROW_11_Left_29
*292 PHY_EDGE_ROW_11_Right_11
*293 PHY_EDGE_ROW_12_Left_30
*294 PHY_EDGE_ROW_12_Right_12
*295 PHY_EDGE_ROW_13_Left_31
*296 PHY_EDGE_ROW_13_Right_13
*297 PHY_EDGE_ROW_14_Left_32
*298 PHY_EDGE_ROW_14_Right_14
*299 PHY_EDGE_ROW_15_Left_33
*300 PHY_EDGE_ROW_15_Right_15
*301 PHY_EDGE_ROW_16_Left_34
*302 PHY_EDGE_ROW_16_Right_16
*303 PHY_EDGE_ROW_17_Left_35
*304 PHY_EDGE_ROW_17_Right_17
*305 PHY_EDGE_ROW_1_Left_19
*306 PHY_EDGE_ROW_1_Right_1
*307 PHY_EDGE_ROW_2_Left_20
*308 PHY_EDGE_ROW_2_Right_2
*309 PHY_EDGE_ROW_3_Left_21
*310 PHY_EDGE_ROW_3_Right_3
*311 PHY_EDGE_ROW_4_Left_22
*312 PHY_EDGE_ROW_4_Right_4
*313 PHY_EDGE_ROW_5_Left_23
*314 PHY_EDGE_ROW_5_Right_5
*315 PHY_EDGE_ROW_6_Left_24
*316 PHY_EDGE_ROW_6_Right_6
*317 PHY_EDGE_ROW_7_Left_25
*318 PHY_EDGE_ROW_7_Right_7
*319 PHY_EDGE_ROW_8_Left_26
*320 PHY_EDGE_ROW_8_Right_8
*321 PHY_EDGE_ROW_9_Left_27
*322 PHY_EDGE_ROW_9_Right_9
*323 TAP_TAPCELL_ROW_0_36
*324 TAP_TAPCELL_ROW_0_37
*325 TAP_TAPCELL_ROW_0_38
*326 TAP_TAPCELL_ROW_10_52
*327 TAP_TAPCELL_ROW_10_53
*328 TAP_TAPCELL_ROW_11_54
*329 TAP_TAPCELL_ROW_12_55
*330 TAP_TAPCELL_ROW_12_56
*331 TAP_TAPCELL_ROW_13_57
*332 TAP_TAPCELL_ROW_14_58
*333 TAP_TAPCELL_ROW_14_59
*334 TAP_TAPCELL_ROW_15_60
*335 TAP_TAPCELL_ROW_16_61
*336 TAP_TAPCELL_ROW_16_62
*337 TAP_TAPCELL_ROW_17_63
*338 TAP_TAPCELL_ROW_17_64
*339 TAP_TAPCELL_ROW_17_65
*340 TAP_TAPCELL_ROW_1_39
*341 TAP_TAPCELL_ROW_2_40
*342 TAP_TAPCELL_ROW_2_41
*343 TAP_TAPCELL_ROW_3_42
*344 TAP_TAPCELL_ROW_4_43
*345 TAP_TAPCELL_ROW_4_44
*346 TAP_TAPCELL_ROW_5_45
*347 TAP_TAPCELL_ROW_6_46
*348 TAP_TAPCELL_ROW_6_47
*349 TAP_TAPCELL_ROW_7_48
*350 TAP_TAPCELL_ROW_8_49
*351 TAP_TAPCELL_ROW_8_50
*352 TAP_TAPCELL_ROW_9_51
*353 _046_
*354 _047_
*355 _048_
*356 _049_
*357 _050_
*358 _051_
*359 _052_
*360 _053_
*361 _054_
*362 _055_
*363 _056_
*364 _057_
*365 _058_
*366 _059_
*367 _060_
*368 _061_
*369 _062_
*370 _063_
*371 _064_
*372 _065_
*373 _066_
*374 _067_
*375 _068_
*376 _069_
*377 _070_
*378 _071_
*379 _072_
*380 _073_
*381 _074_
*382 _075_
*383 _076_
*384 _077_
*385 _078_
*386 _079_
*387 _080_
*388 _081_
*389 _082_
*390 _083_
*391 _084_
*392 _085_
*393 _086_
*394 _087_
*395 _088_
*396 _089_
*397 _090_
*398 _091_
*399 _092_
*400 _093_
*401 _094_
*402 _095_
*403 _096_
*404 _097_
*405 _098_
*406 _099_
*407 _100_
*408 _101_
*409 _102_
*410 _103_
*411 _104_
*412 _105_
*413 _106_
*414 _107_
*415 _108_
*416 _109_
*417 _110_
*418 _111_
*419 _112_
*420 _113_
*421 _114_
*422 clkbuf_0_clk
*423 clkbuf_1_0__f_clk
*424 clkbuf_1_1__f_clk
*425 clkload0
*426 fanout23
*427 fanout24
*428 fanout25
*429 fanout26
*430 fanout27
*431 fanout28
*432 fanout29
*433 fanout30
*434 fanout31
*435 fanout32
*436 fanout33
*437 fanout34
*438 fanout35
*439 fanout36
*440 fanout37
*441 fanout38
*442 fanout39
*443 fanout40
*444 fanout41
*445 fanout42
*446 input1
*447 input10
*448 input11
*449 input12
*450 input13
*451 input14
*452 input15
*453 input16
*454 input17
*455 input18
*456 input2
*457 input3
*458 input4
*459 input5
*460 input6
*461 input7
*462 input8
*463 input9
*464 output19
*465 output20
*466 output21
*467 output22

*PORTS
clk I
data_serial_o[0] O
data_serial_o[1] O
fifo_data_i[0] I
fifo_data_i[10] I
fifo_data_i[11] I
fifo_data_i[12] I
fifo_data_i[13] I
fifo_data_i[14] I
fifo_data_i[15] I
fifo_data_i[1] I
fifo_data_i[2] I
fifo_data_i[3] I
fifo_data_i[4] I
fifo_data_i[5] I
fifo_data_i[6] I
fifo_data_i[7] I
fifo_data_i[8] I
fifo_data_i[9] I
fifo_empty_i I
fifo_rd_en_o O
rst_n I
valid_serial_o O

*D_NET *1 0.00513454
*CONN
*P clk I
*I *422:A I *D sky130_fd_sc_hd__clkbuf_16
*I *136:DIODE I *D sky130_fd_sc_hd__diode_2
*CAP
1 clk 0.00202438
2 *422:A 8.28761e-05
3 *136:DIODE 0
4 *1:11 0.00210726
5 *422:A *95:39 4.98818e-05
6 *1:11 *374:A1 9.1566e-05
7 *1:11 *401:D 9.30717e-05
8 *1:11 *403:D 7.18817e-05
9 *1:11 *405:CLK 0.000345691
10 *1:11 *405:D 2.60986e-05
11 *1:11 *423:A 0
12 *1:11 *441:A 0
13 *1:11 *22:13 0.000103415
14 *1:11 *73:71 0.000116853
15 *1:11 *107:58 0
16 *1:11 *111:25 0
17 *1:11 *127:10 2.15594e-05
*RES
1 clk *1:11 22.6261 
2 *1:11 *136:DIODE 1.6 
3 *1:11 *422:A 2.755 
*END

*D_NET *2 0.000639999
*CONN
*P data_serial_o[0] O
*I *464:X O *D sky130_fd_sc_hd__buf_4
*CAP
1 data_serial_o[0] 0.00032
2 *464:X 0.00032
*RES
1 *464:X data_serial_o[0] 5.33483 
*END

*D_NET *3 0.000720412
*CONN
*P data_serial_o[1] O
*I *465:X O *D sky130_fd_sc_hd__buf_4
*CAP
1 data_serial_o[1] 0.000331142
2 *465:X 0.000331142
3 data_serial_o[1] *465:A 5.8129e-05
*RES
1 *465:X data_serial_o[1] 6.04157 
*END

*D_NET *4 0.0011525
*CONN
*P fifo_data_i[0] I
*I *446:A I *D sky130_fd_sc_hd__clkbuf_1
*I *146:DIODE I *D sky130_fd_sc_hd__diode_2
*CAP
1 fifo_data_i[0] 7.29326e-05
2 *446:A 0.000152655
3 *146:DIODE 0.000117779
4 *4:9 0.000343367
5 *146:DIODE *145:DIODE 0.0001249
6 *146:DIODE *445:A 4.99619e-05
7 *146:DIODE *22:13 4.66108e-05
8 *446:A *154:DIODE 3.45588e-05
9 *446:A *73:87 5.36138e-05
10 *4:9 *11:13 7.40838e-05
11 *4:9 *22:13 7.69864e-05
12 *4:9 *73:87 5.05066e-06
*RES
1 fifo_data_i[0] *4:9 1.07197 
2 *4:9 *146:DIODE 5.775 
3 *4:9 *446:A 6.375 
*END

*D_NET *5 0.00113444
*CONN
*P fifo_data_i[10] I
*I *456:A I *D sky130_fd_sc_hd__clkbuf_1
*I *147:DIODE I *D sky130_fd_sc_hd__diode_2
*CAP
1 fifo_data_i[10] 6.14718e-05
2 *456:A 0.000195421
3 *147:DIODE 0.000135818
4 *5:9 0.000392711
5 *147:DIODE *143:DIODE 0.000124895
6 *147:DIODE *388:B1 4.82863e-05
7 *147:DIODE *19:13 4.82919e-05
8 *456:A *406:CLK 0
9 *5:9 *6:13 6.37723e-05
10 *5:9 *19:13 6.37723e-05
*RES
1 fifo_data_i[10] *5:9 1.0137 
2 *5:9 *147:DIODE 6.12 
3 *5:9 *456:A 6.72 
*END

*D_NET *6 0.000943371
*CONN
*P fifo_data_i[11] I
*I *148:DIODE I *D sky130_fd_sc_hd__diode_2
*I *457:A I *D sky130_fd_sc_hd__clkbuf_1
*CAP
1 fifo_data_i[11] 0.00027074
2 *148:DIODE 7.12895e-05
3 *457:A 0
4 *6:13 0.000342029
5 *148:DIODE *392:B1 5.53774e-05
6 *148:DIODE *394:B1 4.99619e-05
7 *6:13 *7:13 9.02005e-05
8 *6:13 *8:13 0
9 *6:13 *19:13 0
10 *6:13 *45:8 0
11 *5:9 *6:13 6.37723e-05
*RES
1 fifo_data_i[11] *6:13 5.4235 
2 *6:13 *457:A 1.6 
3 *6:13 *148:DIODE 3.1 
*END

*D_NET *7 0.00128459
*CONN
*P fifo_data_i[12] I
*I *458:A I *D sky130_fd_sc_hd__clkbuf_1
*I *149:DIODE I *D sky130_fd_sc_hd__diode_2
*CAP
1 fifo_data_i[12] 0.000220896
2 *458:A 0
3 *149:DIODE 0.000171275
4 *7:13 0.000392172
5 *149:DIODE *151:DIODE 3.90495e-05
6 *149:DIODE *396:B1 0.000124007
7 *149:DIODE *460:A 4.00541e-06
8 *149:DIODE *9:13 6.90876e-05
9 *7:13 *394:B1 0
10 *7:13 *8:13 8.72979e-05
11 *7:13 *9:13 8.65961e-05
12 *7:13 *45:8 0
13 *6:13 *7:13 9.02005e-05
*RES
1 fifo_data_i[12] *7:13 5.45523 
2 *7:13 *149:DIODE 4.825 
3 *7:13 *458:A 1.6 
*END

*D_NET *8 0.000875218
*CONN
*P fifo_data_i[13] I
*I *150:DIODE I *D sky130_fd_sc_hd__diode_2
*I *459:A I *D sky130_fd_sc_hd__clkbuf_1
*CAP
1 fifo_data_i[13] 0.000235441
2 *150:DIODE 6.29343e-05
3 *459:A 0
4 *8:13 0.000298376
5 *150:DIODE *396:B1 2.11084e-05
6 *8:13 *396:B1 0
7 *8:13 *9:13 0.00017006
8 *6:13 *8:13 0
9 *7:13 *8:13 8.72979e-05
*RES
1 fifo_data_i[13] *8:13 5.4235 
2 *8:13 *459:A 1.6 
3 *8:13 *150:DIODE 2.74 
*END

*D_NET *9 0.00121546
*CONN
*P fifo_data_i[14] I
*I *151:DIODE I *D sky130_fd_sc_hd__diode_2
*I *460:A I *D sky130_fd_sc_hd__clkbuf_1
*CAP
1 fifo_data_i[14] 0.000279039
2 *151:DIODE 3.98613e-05
3 *460:A 1.90984e-05
4 *9:13 0.000337998
5 *151:DIODE *370:B1 4.82919e-05
6 *151:DIODE *396:B1 4.82919e-05
7 *9:13 *10:17 7.40838e-05
8 *149:DIODE *151:DIODE 3.90495e-05
9 *149:DIODE *460:A 4.00541e-06
10 *149:DIODE *9:13 6.90876e-05
11 *7:13 *9:13 8.65961e-05
12 *8:13 *9:13 0.00017006
*RES
1 fifo_data_i[14] *9:13 7.28697 
2 *9:13 *460:A 1.96 
3 *9:13 *151:DIODE 2.74 
*END

*D_NET *10 0.00253361
*CONN
*P fifo_data_i[15] I
*I *152:DIODE I *D sky130_fd_sc_hd__diode_2
*I *461:A I *D sky130_fd_sc_hd__clkbuf_1
*CAP
1 fifo_data_i[15] 0.000397108
2 *152:DIODE 4.19524e-05
3 *461:A 1.90984e-05
4 *10:17 0.000458159
5 *152:DIODE *144:DIODE 0.00012657
6 *152:DIODE *371:B1 3.23663e-05
7 *152:DIODE *20:15 6.20787e-05
8 *152:DIODE *106:10 0.000318091
9 *461:A *20:15 4.00541e-06
10 *10:17 fifo_rd_en_o 0.00012657
11 *10:17 *437:A 0.000163199
12 *10:17 *466:A 0
13 *10:17 *20:15 0.000468842
14 *10:17 *106:10 0.000241483
15 *9:13 *10:17 7.40838e-05
*RES
1 fifo_data_i[15] *10:17 11.292 
2 *10:17 *461:A 1.96 
3 *10:17 *152:DIODE 4.465 
*END

*D_NET *11 0.00126933
*CONN
*P fifo_data_i[1] I
*I *153:DIODE I *D sky130_fd_sc_hd__diode_2
*I *462:A I *D sky130_fd_sc_hd__clkbuf_1
*CAP
1 fifo_data_i[1] 0.000222343
2 *153:DIODE 1.70637e-05
3 *462:A 2.08101e-05
4 *11:13 0.000260217
5 *153:DIODE *374:B1 0.000114912
6 *153:DIODE *376:B1 7.60965e-05
7 *11:13 *154:DIODE 0.00011852
8 *11:13 *374:B1 4.99619e-05
9 *11:13 *376:B1 3.00381e-05
10 *11:13 *463:A 4.66108e-05
11 *11:13 *12:9 9.02005e-05
12 *11:13 *22:13 0
13 *11:13 *73:87 0.000148475
14 *4:9 *11:13 7.40838e-05
*RES
1 fifo_data_i[1] *11:13 6.2035 
2 *11:13 *462:A 1.96 
3 *11:13 *153:DIODE 2.74 
*END

*D_NET *12 0.00116369
*CONN
*P fifo_data_i[2] I
*I *463:A I *D sky130_fd_sc_hd__clkbuf_1
*I *154:DIODE I *D sky130_fd_sc_hd__diode_2
*CAP
1 fifo_data_i[2] 8.08494e-05
2 *463:A 5.21038e-05
3 *154:DIODE 0.00022605
4 *12:9 0.000359003
5 *154:DIODE *372:B2 4.99619e-05
6 *154:DIODE *73:87 1.01152e-05
7 *12:9 *13:13 8.72979e-05
8 *12:9 *73:87 8.41703e-06
9 *446:A *154:DIODE 3.45588e-05
10 *11:13 *154:DIODE 0.00011852
11 *11:13 *463:A 4.66108e-05
12 *11:13 *12:9 9.02005e-05
*RES
1 fifo_data_i[2] *12:9 1.13023 
2 *12:9 *154:DIODE 7.065 
3 *12:9 *463:A 4.395 
*END

*D_NET *13 0.000888386
*CONN
*P fifo_data_i[3] I
*I *137:DIODE I *D sky130_fd_sc_hd__diode_2
*I *447:A I *D sky130_fd_sc_hd__clkbuf_1
*CAP
1 fifo_data_i[3] 0.000219117
2 *137:DIODE 5.21203e-05
3 *447:A 0
4 *13:13 0.000271237
5 *137:DIODE *73:81 6.77501e-05
6 *13:13 *404:CLK 2.35512e-05
7 *13:13 *14:13 9.02005e-05
8 *13:13 *73:81 5.83121e-06
9 *13:13 *73:83 7.12809e-05
10 *12:9 *13:13 8.72979e-05
*RES
1 fifo_data_i[3] *13:13 5.71023 
2 *13:13 *447:A 1.6 
3 *13:13 *137:DIODE 2.74 
*END

*D_NET *14 0.000898403
*CONN
*P fifo_data_i[4] I
*I *138:DIODE I *D sky130_fd_sc_hd__diode_2
*I *448:A I *D sky130_fd_sc_hd__clkbuf_1
*CAP
1 fifo_data_i[4] 0.000205441
2 *138:DIODE 6.47905e-05
3 *448:A 0
4 *14:13 0.000270231
5 *138:DIODE *378:B1 3.00381e-05
6 *14:13 *404:CLK 0.000150404
7 *14:13 *15:13 8.72979e-05
8 *14:13 *16:13 0
9 *13:13 *14:13 9.02005e-05
*RES
1 fifo_data_i[4] *14:13 5.1685 
2 *14:13 *448:A 1.6 
3 *14:13 *138:DIODE 2.74 
*END

*D_NET *15 0.00110928
*CONN
*P fifo_data_i[5] I
*I *139:DIODE I *D sky130_fd_sc_hd__diode_2
*I *449:A I *D sky130_fd_sc_hd__clkbuf_1
*CAP
1 fifo_data_i[5] 0.000208383
2 *139:DIODE 3.64096e-05
3 *449:A 0
4 *15:13 0.000244793
5 *139:DIODE *141:DIODE 0.00012657
6 *139:DIODE *380:B1 4.35348e-05
7 *139:DIODE *404:CLK 0.000111285
8 *15:13 *141:DIODE 8.65961e-05
9 *15:13 *382:B1 0
10 *15:13 *404:CLK 7.71121e-05
11 *15:13 *16:13 8.72979e-05
12 *14:13 *15:13 8.72979e-05
*RES
1 fifo_data_i[5] *15:13 5.71023 
2 *15:13 *449:A 1.6 
3 *15:13 *139:DIODE 3.43 
*END

*D_NET *16 0.00113022
*CONN
*P fifo_data_i[6] I
*I *140:DIODE I *D sky130_fd_sc_hd__diode_2
*I *450:A I *D sky130_fd_sc_hd__clkbuf_1
*CAP
1 fifo_data_i[6] 0.000274549
2 *140:DIODE 5.66881e-05
3 *450:A 2.08101e-05
4 *16:13 0.000352047
5 *140:DIODE *384:B1 7.60965e-05
6 *16:13 *141:DIODE 9.71067e-05
7 *16:13 *382:B1 0
8 *16:13 *384:B1 3.00381e-05
9 *16:13 *451:A 4.82919e-05
10 *16:13 *17:9 8.72979e-05
11 *16:13 *18:13 0
12 *16:13 *45:8 0
13 *14:13 *16:13 0
14 *15:13 *16:13 8.72979e-05
*RES
1 fifo_data_i[6] *16:13 5.9485 
2 *16:13 *450:A 1.96 
3 *16:13 *140:DIODE 2.74 
*END

*D_NET *17 0.00122316
*CONN
*P fifo_data_i[7] I
*I *451:A I *D sky130_fd_sc_hd__clkbuf_1
*I *141:DIODE I *D sky130_fd_sc_hd__diode_2
*CAP
1 fifo_data_i[7] 0.000104134
2 *451:A 4.69754e-05
3 *141:DIODE 0.000168911
4 *17:9 0.00032002
5 *141:DIODE *380:B1 4.99619e-05
6 *141:DIODE *45:8 0
7 *17:9 *18:13 8.72979e-05
8 *17:9 *45:8 0
9 *139:DIODE *141:DIODE 0.00012657
10 *15:13 *141:DIODE 8.65961e-05
11 *16:13 *141:DIODE 9.71067e-05
12 *16:13 *451:A 4.82919e-05
13 *16:13 *17:9 8.72979e-05
*RES
1 fifo_data_i[7] *17:9 1.38523 
2 *17:9 *141:DIODE 7.17 
3 *17:9 *451:A 4.395 
*END

*D_NET *18 0.000857494
*CONN
*P fifo_data_i[8] I
*I *142:DIODE I *D sky130_fd_sc_hd__diode_2
*I *452:A I *D sky130_fd_sc_hd__clkbuf_1
*CAP
1 fifo_data_i[8] 0.00021524
2 *142:DIODE 0.000103757
3 *452:A 0
4 *18:13 0.000318997
5 *18:13 *386:B1 2.87867e-05
6 *18:13 *406:CLK 0
7 *18:13 *19:13 0.000103415
8 *16:13 *18:13 0
9 *17:9 *18:13 8.72979e-05
*RES
1 fifo_data_i[8] *18:13 5.1685 
2 *18:13 *452:A 1.6 
3 *18:13 *142:DIODE 3.085 
*END

*D_NET *19 0.00101677
*CONN
*P fifo_data_i[9] I
*I *143:DIODE I *D sky130_fd_sc_hd__diode_2
*I *453:A I *D sky130_fd_sc_hd__clkbuf_1
*CAP
1 fifo_data_i[9] 0.000238703
2 *143:DIODE 7.48079e-05
3 *453:A 0
4 *19:13 0.000313511
5 *143:DIODE *388:B1 4.93698e-05
6 *19:13 *406:CLK 0
7 *147:DIODE *143:DIODE 0.000124895
8 *147:DIODE *19:13 4.82919e-05
9 *5:9 *19:13 6.37723e-05
10 *6:13 *19:13 0
11 *18:13 *19:13 0.000103415
*RES
1 fifo_data_i[9] *19:13 5.4235 
2 *19:13 *453:A 1.6 
3 *19:13 *143:DIODE 3.43 
*END

*D_NET *20 0.00192485
*CONN
*P fifo_empty_i I
*I *144:DIODE I *D sky130_fd_sc_hd__diode_2
*I *454:A I *D sky130_fd_sc_hd__clkbuf_1
*CAP
1 fifo_empty_i 0.000377493
2 *144:DIODE 1.67854e-05
3 *454:A 0
4 *20:15 0.000394278
5 *144:DIODE *371:B1 6.90876e-05
6 *20:15 fifo_rd_en_o 8.37843e-05
7 *20:15 *371:B1 4.99619e-05
8 *20:15 *437:A 0.000163199
9 *20:15 *466:A 0
10 *20:15 *107:29 0.000108761
11 *152:DIODE *144:DIODE 0.00012657
12 *152:DIODE *20:15 6.20787e-05
13 *461:A *20:15 4.00541e-06
14 *10:17 *20:15 0.000468842
*RES
1 fifo_empty_i *20:15 10.4052 
2 *20:15 *454:A 1.6 
3 *20:15 *144:DIODE 2.74 
*END

*D_NET *21 0.000855525
*CONN
*P fifo_rd_en_o O
*I *466:X O *D sky130_fd_sc_hd__buf_4
*CAP
1 fifo_rd_en_o 0.000322585
2 *466:X 0.000322585
3 *10:17 fifo_rd_en_o 0.00012657
4 *20:15 fifo_rd_en_o 8.37843e-05
*RES
1 *466:X fifo_rd_en_o 7.7135 
*END

*D_NET *22 0.0011078
*CONN
*P rst_n I
*I *145:DIODE I *D sky130_fd_sc_hd__diode_2
*I *455:A I *D sky130_fd_sc_hd__clkbuf_1
*CAP
1 rst_n 0.000190945
2 *145:DIODE 7.894e-05
3 *455:A 0
4 *22:13 0.000269885
5 *145:DIODE *445:A 4.21973e-05
6 *22:13 *73:87 0.000173916
7 *146:DIODE *145:DIODE 0.0001249
8 *146:DIODE *22:13 4.66108e-05
9 *1:11 *22:13 0.000103415
10 *4:9 *22:13 7.69864e-05
11 *11:13 *22:13 0
*RES
1 rst_n *22:13 5.4235 
2 *22:13 *455:A 1.6 
3 *22:13 *145:DIODE 3.43 
*END

*D_NET *23 0.000712183
*CONN
*P valid_serial_o O
*I *467:X O *D sky130_fd_sc_hd__buf_4
*CAP
1 valid_serial_o 0.000356091
2 *467:X 0.000356091
*RES
1 *467:X valid_serial_o 5.84483 
*END

*D_NET *26 0.000405218
*CONN
*I *399:D I *D sky130_fd_sc_hd__dfrtp_1
*I *372:X O *D sky130_fd_sc_hd__a22o_1
*CAP
1 *399:D 9.80602e-05
2 *372:X 9.80602e-05
3 *399:D *372:A1 8.65961e-05
4 *399:D *373:A1 8.85954e-05
5 *399:D *400:RESET_B 4.18603e-06
6 *399:D *110:10 2.97204e-05
*RES
1 *372:X *399:D 9.12 
*END

*D_NET *27 0.000677297
*CONN
*I *400:D I *D sky130_fd_sc_hd__dfrtp_1
*I *373:X O *D sky130_fd_sc_hd__a22o_1
*CAP
1 *400:D 0.000317258
2 *373:X 0.000317258
3 *400:D *372:B2 1.03423e-05
4 *400:D *373:B2 4.9253e-06
5 *400:D *73:87 0
6 *400:D *73:102 2.75145e-05
*RES
1 *373:X *400:D 12.03 
*END

*D_NET *28 0.000357893
*CONN
*I *401:D I *D sky130_fd_sc_hd__dfrtp_1
*I *375:X O *D sky130_fd_sc_hd__mux2_1
*CAP
1 *401:D 7.3762e-05
2 *375:X 7.3762e-05
3 *401:D *115:23 4.66108e-05
4 *401:D *127:10 7.06865e-05
5 *1:11 *401:D 9.30717e-05
*RES
1 *375:X *401:D 8.775 
*END

*D_NET *29 0.000658006
*CONN
*I *402:D I *D sky130_fd_sc_hd__dfrtp_1
*I *377:X O *D sky130_fd_sc_hd__mux2_1
*CAP
1 *402:D 0.000180142
2 *377:X 0.000180142
3 *402:D *376:B1 0.000297722
4 *402:D *45:8 0
*RES
1 *377:X *402:D 10.155 
*END

*D_NET *30 0.000872054
*CONN
*I *403:D I *D sky130_fd_sc_hd__dfrtp_1
*I *379:X O *D sky130_fd_sc_hd__mux2_1
*CAP
1 *403:D 0.000279952
2 *379:X 0.000279952
3 *403:D *374:A1 3.64998e-06
4 *403:D *378:A2 2.75584e-05
5 *403:D *405:CLK 5.23362e-05
6 *403:D *73:71 0.000116853
7 *403:D *73:77 5.83121e-06
8 *403:D *104:72 3.40395e-05
9 *1:11 *403:D 7.18817e-05
*RES
1 *379:X *403:D 12.21 
*END

*D_NET *31 0.000377378
*CONN
*I *404:D I *D sky130_fd_sc_hd__dfrtp_1
*I *381:X O *D sky130_fd_sc_hd__mux2_1
*CAP
1 *404:D 0.000144556
2 *381:X 0.000144556
3 *404:D *378:B1 8.8266e-05
4 *404:D *380:B1 0
5 *404:D *45:8 0
*RES
1 *381:X *404:D 9.375 
*END

*D_NET *32 0.000508259
*CONN
*I *405:D I *D sky130_fd_sc_hd__dfrtp_1
*I *383:X O *D sky130_fd_sc_hd__mux2_1
*CAP
1 *405:D 0.000145009
2 *383:X 0.000145009
3 *405:D *378:B1 8.64421e-05
4 *405:D *405:CLK 7.81845e-05
5 *405:D *405:RESET_B 2.75145e-05
6 *1:11 *405:D 2.60986e-05
*RES
1 *383:X *405:D 9.825 
*END

*D_NET *33 0.000641459
*CONN
*I *406:D I *D sky130_fd_sc_hd__dfrtp_1
*I *385:X O *D sky130_fd_sc_hd__mux2_1
*CAP
1 *406:D 0.000250068
2 *385:X 0.000250068
3 *406:D *384:B1 0.000141323
4 *406:D *45:8 0
*RES
1 *385:X *406:D 10.755 
*END

*D_NET *34 0.000571309
*CONN
*I *407:D I *D sky130_fd_sc_hd__dfrtp_1
*I *387:X O *D sky130_fd_sc_hd__mux2_1
*CAP
1 *407:D 0.000204266
2 *387:X 0.000204266
3 *407:D *386:B1 0.000162777
4 *407:D *111:63 0
*RES
1 *387:X *407:D 9.81 
*END

*D_NET *35 0.000677811
*CONN
*I *408:D I *D sky130_fd_sc_hd__dfrtp_1
*I *389:X O *D sky130_fd_sc_hd__mux2_1
*CAP
1 *408:D 0.000175101
2 *389:X 0.000175101
3 *408:D *388:B1 0.000200615
4 *408:D *406:CLK 3.39151e-05
5 *408:D *45:8 9.30787e-05
*RES
1 *389:X *408:D 10.155 
*END

*D_NET *36 0.000407463
*CONN
*I *409:D I *D sky130_fd_sc_hd__dfrtp_1
*I *391:X O *D sky130_fd_sc_hd__mux2_1
*CAP
1 *409:D 0.000131976
2 *391:X 0.000131976
3 *409:D *409:CLK 2.49909e-05
4 *409:D *74:16 0.00011852
5 *409:D *115:36 0
*RES
1 *391:X *409:D 9.48 
*END

*D_NET *37 0.000457532
*CONN
*I *410:D I *D sky130_fd_sc_hd__dfrtp_1
*I *393:X O *D sky130_fd_sc_hd__mux2_1
*CAP
1 *410:D 0.000146722
2 *393:X 0.000146722
3 *410:D *370:B1 8.8266e-05
4 *410:D *410:CLK 1.43521e-05
5 *410:D *410:RESET_B 6.14689e-05
6 *410:D *107:29 0
*RES
1 *393:X *410:D 9.885 
*END

*D_NET *38 0.000552923
*CONN
*I *411:D I *D sky130_fd_sc_hd__dfrtp_1
*I *395:X O *D sky130_fd_sc_hd__mux2_1
*CAP
1 *411:D 0.000226433
2 *395:X 0.000226433
3 *411:D *47:16 7.00889e-06
4 *411:D *74:126 2.75145e-05
5 *411:D *105:8 0
6 *411:D *115:51 6.55328e-05
*RES
1 *395:X *411:D 11.1 
*END

*D_NET *39 0.000585433
*CONN
*I *412:D I *D sky130_fd_sc_hd__dfrtp_1
*I *397:X O *D sky130_fd_sc_hd__mux2_1
*CAP
1 *412:D 0.000227399
2 *397:X 0.000227399
3 *412:D *47:16 4.89295e-05
4 *412:D *74:140 8.17055e-05
*RES
1 *397:X *412:D 10.365 
*END

*D_NET *40 0.0008076
*CONN
*I *393:A1 I *D sky130_fd_sc_hd__mux2_1
*I *392:X O *D sky130_fd_sc_hd__a32o_1
*CAP
1 *393:A1 0.000105507
2 *392:X 0.000105507
3 *393:A1 *392:A3 8.65905e-05
4 *393:A1 *394:B1 0.000270409
5 *393:A1 *427:A 6.51872e-05
6 *393:A1 *100:61 3.7604e-05
7 *393:A1 *135:24 0.000136796
*RES
1 *392:X *393:A1 10.845 
*END

*D_NET *41 0.000878929
*CONN
*I *395:A1 I *D sky130_fd_sc_hd__mux2_1
*I *394:X O *D sky130_fd_sc_hd__a32o_1
*CAP
1 *395:A1 0.00023217
2 *394:X 0.00023217
3 *395:A1 *74:87 0.000315527
4 *395:A1 *104:28 7.23602e-05
5 *395:A1 *115:51 2.67022e-05
*RES
1 *394:X *395:A1 10.935 
*END

*D_NET *42 0.0005522
*CONN
*I *397:A1 I *D sky130_fd_sc_hd__mux2_1
*I *396:X O *D sky130_fd_sc_hd__a32o_1
*CAP
1 *397:A1 0.000133074
2 *396:X 0.000133074
3 *397:A1 *397:S 0.000160641
4 *397:A1 *46:24 6.65725e-05
5 *397:A1 *74:140 5.88395e-05
*RES
1 *396:X *397:A1 10.065 
*END

*D_NET *43 0.00311228
*CONN
*I *440:A I *D sky130_fd_sc_hd__clkbuf_2
*I *439:A I *D sky130_fd_sc_hd__dlymetal6s2s_1
*I *353:Y O *D sky130_fd_sc_hd__inv_2
*CAP
1 *440:A 0
2 *439:A 0.000631262
3 *353:Y 4.13467e-05
4 *43:6 0.000672609
5 *439:A *386:A1 0.000364625
6 *439:A *386:B2 0.000186635
7 *439:A *394:B2 9.9535e-05
8 *439:A *396:A3 2.84864e-05
9 *439:A *418:CLK 0
10 *439:A *418:D 0
11 *439:A *424:A 0.000199727
12 *439:A *95:18 0.000153816
13 *439:A *95:20 6.52906e-05
14 *439:A *95:22 0.000134029
15 *439:A *97:31 0.00011099
16 *439:A *106:31 0
17 *439:A *108:36 9.66106e-05
18 *439:A *133:8 3.72916e-05
19 *439:A *135:12 6.52265e-05
20 *43:6 *394:B1 9.0009e-05
21 *43:6 *97:19 0.000122797
22 *43:6 *109:25 1.19928e-05
*RES
1 *353:Y *43:6 3.085 
2 *43:6 *439:A 26.055 
3 *43:6 *440:A 1.6 
*END

*D_NET *44 0.000891828
*CONN
*I *364:A1 I *D sky130_fd_sc_hd__a31o_1
*I *354:Y O *D sky130_fd_sc_hd__inv_2
*CAP
1 *364:A1 0.000137743
2 *354:Y 0.000137743
3 *364:A1 *99:8 0.000312964
4 *364:A1 *104:42 0.000199833
5 *364:A1 *104:72 1.91597e-05
6 *364:A1 *113:33 8.43862e-05
*RES
1 *354:Y *364:A1 7.445 
*END

*D_NET *45 0.00440858
*CONN
*I *372:A2 I *D sky130_fd_sc_hd__a22o_1
*I *373:A2 I *D sky130_fd_sc_hd__a22o_1
*I *355:Y O *D sky130_fd_sc_hd__nor2_1
*CAP
1 *372:A2 0.000270418
2 *373:A2 4.9427e-05
3 *355:Y 0.00151514
4 *45:8 0.00183499
5 *372:A2 *372:A1 1.73347e-05
6 *372:A2 *372:B2 0.000201508
7 *372:A2 *373:B1 2.80173e-05
8 *372:A2 *104:72 8.00057e-05
9 *373:A2 *373:B2 2.7881e-05
10 *373:A2 *73:87 0
11 *45:8 *356:A 0
12 *45:8 *373:B2 3.50033e-05
13 *45:8 *376:B1 0
14 *45:8 *377:A0 0
15 *45:8 *377:S 0
16 *45:8 *380:A1 0
17 *45:8 *380:B1 0
18 *45:8 *382:B1 0.000183994
19 *45:8 *385:A1 0
20 *45:8 *385:S 0
21 *45:8 *388:A2 0
22 *45:8 *394:B1 0
23 *45:8 *396:B1 7.17811e-05
24 *45:8 *404:CLK 0
25 *45:8 *406:CLK 0
26 *45:8 *46:8 0
27 *45:8 *73:83 0
28 *45:8 *73:87 0
29 *45:8 *104:72 0
30 *141:DIODE *45:8 0
31 *402:D *45:8 0
32 *404:D *45:8 0
33 *406:D *45:8 0
34 *408:D *45:8 9.30787e-05
35 *6:13 *45:8 0
36 *7:13 *45:8 0
37 *16:13 *45:8 0
38 *17:9 *45:8 0
*RES
1 *355:Y *45:8 28.95 
2 *45:8 *373:A2 4.47 
3 *45:8 *372:A2 7.68 
*END

*D_NET *46 0.00669809
*CONN
*I *438:A I *D sky130_fd_sc_hd__clkbuf_2
*I *395:S I *D sky130_fd_sc_hd__mux2_1
*I *391:S I *D sky130_fd_sc_hd__mux2_1
*I *356:X O *D sky130_fd_sc_hd__or2_1
*CAP
1 *438:A 0.000275622
2 *395:S 0.0001631
3 *391:S 0.000345909
4 *356:X 4.44879e-05
5 *46:24 0.0014318
6 *46:8 0.0012429
7 *391:S *371:A1 0
8 *391:S *371:A2 0
9 *391:S *371:B2 7.96104e-06
10 *391:S *386:B2 0.000159964
11 *391:S *391:A0 5.44455e-05
12 *391:S *391:A1 0.000116158
13 *391:S *394:A1 0
14 *391:S *394:B2 0.000354227
15 *391:S *105:8 0.000104413
16 *395:S *370:A2 3.83041e-05
17 *395:S *370:B1 0.00032747
18 *395:S *395:A0 8.8266e-05
19 *395:S *100:18 0.000464505
20 *438:A *356:A 2.86623e-05
21 *438:A *413:RESET_B 4.27745e-05
22 *438:A *437:A 7.30547e-05
23 *438:A *466:A 0
24 *438:A *92:12 0
25 *438:A *107:29 0
26 *46:8 *356:A 3.86529e-05
27 *46:24 *371:A1 0
28 *46:24 *397:S 0.000133427
29 *46:24 *410:RESET_B 4.65338e-05
30 *46:24 *429:A 0.000227055
31 *46:24 *47:16 0.000272945
32 *46:24 *74:140 0.000311282
33 *46:24 *92:25 4.80285e-05
34 *46:24 *105:8 6.36578e-05
35 *46:24 *124:12 4.8854e-05
36 *46:24 *135:46 7.70571e-05
37 *397:A1 *46:24 6.65725e-05
38 *45:8 *46:8 0
*RES
1 *356:X *46:8 4.47 
2 *46:8 *46:24 21.07 
3 *46:24 *391:S 11.865 
4 *46:24 *395:S 9.57 
5 *46:8 *438:A 8.55 
*END

*D_NET *47 0.00456495
*CONN
*I *435:A I *D sky130_fd_sc_hd__clkbuf_2
*I *436:A I *D sky130_fd_sc_hd__buf_1
*I *358:X O *D sky130_fd_sc_hd__and2b_1
*CAP
1 *435:A 0.000305584
2 *436:A 0
3 *358:X 0.00101367
4 *47:16 0.00131926
5 *435:A *432:A 0.00012657
6 *435:A *100:12 4.82919e-05
7 *435:A *115:51 0.000353049
8 *47:16 *397:A0 0.000120655
9 *47:16 *397:S 0.000322583
10 *47:16 *410:RESET_B 8.03714e-05
11 *47:16 *74:126 3.13457e-05
12 *47:16 *74:140 0.000107643
13 *47:16 *105:8 7.89767e-05
14 *47:16 *115:51 0
15 *47:16 *126:12 0.000228937
16 *47:16 *135:46 9.91257e-05
17 *411:D *47:16 7.00889e-06
18 *412:D *47:16 4.89295e-05
19 *46:24 *47:16 0.000272945
*RES
1 *358:X *47:16 22.985 
2 *47:16 *436:A 1.6 
3 *47:16 *435:A 7.915 
*END

*D_NET *48 0.00216068
*CONN
*I *367:A_N I *D sky130_fd_sc_hd__and3b_1
*I *360:B I *D sky130_fd_sc_hd__and2b_1
*I *366:A2 I *D sky130_fd_sc_hd__o31a_1
*I *359:Y O *D sky130_fd_sc_hd__nor2_1
*CAP
1 *367:A_N 0.000165178
2 *360:B 5.14467e-05
3 *366:A2 7.10717e-05
4 *359:Y 0
5 *48:19 0.000307411
6 *48:4 0.000161858
7 *360:B *360:A_N 0.00015639
8 *360:B *368:A2 2.8185e-05
9 *360:B *368:B1 2.75145e-05
10 *366:A2 *361:D 2.16917e-05
11 *366:A2 *76:23 4.66108e-05
12 *366:A2 *104:28 4.82919e-05
13 *366:A2 *104:36 0.000105508
14 *367:A_N *360:A_N 8.23457e-05
15 *367:A_N *365:A 4.82863e-05
16 *367:A_N *367:C 6.58423e-05
17 *367:A_N *368:A1 4.66108e-05
18 *367:A_N *368:A2 8.34281e-06
19 *367:A_N *434:A 0.0002014
20 *367:A_N *75:32 0.000204463
21 *367:A_N *77:14 2.30292e-05
22 *367:A_N *103:27 3.83194e-05
23 *48:19 *359:A 4.82863e-05
24 *48:19 *361:D 2.30292e-05
25 *48:19 *369:A_N 1.73877e-05
26 *48:19 *434:A 9.72361e-05
27 *48:19 *75:32 1.73877e-05
28 *48:19 *104:36 4.75576e-05
*RES
1 *359:Y *48:4 1.6 
2 *48:4 *366:A2 3.43 
3 *48:4 *48:19 6.43 
4 *48:19 *360:B 3.085 
5 *48:19 *367:A_N 10.625 
*END

*D_NET *49 0.00193777
*CONN
*I *369:A_N I *D sky130_fd_sc_hd__and3b_1
*I *368:A2 I *D sky130_fd_sc_hd__a311o_1
*I *360:X O *D sky130_fd_sc_hd__and2b_1
*CAP
1 *369:A_N 0.000399913
2 *368:A2 0.000148492
3 *360:X 0
4 *49:4 0.000548405
5 *368:A2 *360:A_N 1.85674e-05
6 *368:A2 *368:A1 2.49909e-05
7 *368:A2 *368:B1 4.82863e-05
8 *368:A2 *96:45 0
9 *369:A_N *359:A 0
10 *369:A_N *361:A 2.05056e-05