* NGSPICE file created from bmu.ext - technology: sky130A

* Black-box entry subcircuit for sky130_fd_sc_hd__decap_6 abstract view
.subckt sky130_fd_sc_hd__decap_6 VGND VNB VPB VPWR
.ends

* Black-box entry subcircuit for sky130_ef_sc_hd__decap_12 abstract view
.subckt sky130_ef_sc_hd__decap_12 VPWR VGND VPB VNB
.ends

* Black-box entry subcircuit for sky130_fd_sc_hd__tapvpwrvgnd_1 abstract view
.subckt sky130_fd_sc_hd__tapvpwrvgnd_1 VGND VPWR
.ends

* Black-box entry subcircuit for sky130_fd_sc_hd__fill_1 abstract view
.subckt sky130_fd_sc_hd__fill_1 VGND VNB VPB VPWR
.ends

* Black-box entry subcircuit for sky130_fd_sc_hd__decap_8 abstract view
.subckt sky130_fd_sc_hd__decap_8 VGND VNB VPB VPWR
.ends

* Black-box entry subcircuit for sky130_fd_sc_hd__decap_4 abstract view
.subckt sky130_fd_sc_hd__decap_4 VGND VNB VPB VPWR
.ends

* Black-box entry subcircuit for sky130_fd_sc_hd__buf_4 abstract view
.subckt sky130_fd_sc_hd__buf_4 A VGND VNB VPB VPWR X
.ends

* Black-box entry subcircuit for sky130_fd_sc_hd__decap_3 abstract view
.subckt sky130_fd_sc_hd__decap_3 VGND VNB VPB VPWR
.ends

* Black-box entry subcircuit for sky130_fd_sc_hd__fill_2 abstract view
.subckt sky130_fd_sc_hd__fill_2 VGND VNB VPB VPWR
.ends

* Black-box entry subcircuit for sky130_fd_sc_hd__clkbuf_1 abstract view
.subckt sky130_fd_sc_hd__clkbuf_1 A VGND VNB VPB VPWR X
.ends

* Black-box entry subcircuit for sky130_fd_sc_hd__and2b_1 abstract view
.subckt sky130_fd_sc_hd__and2b_1 A_N B VGND VNB VPB VPWR X
.ends

* Black-box entry subcircuit for sky130_fd_sc_hd__clkbuf_4 abstract view
.subckt sky130_fd_sc_hd__clkbuf_4 A VGND VNB VPB VPWR X
.ends

* Black-box entry subcircuit for sky130_fd_sc_hd__xnor2_2 abstract view
.subckt sky130_fd_sc_hd__xnor2_2 A B VGND VNB VPB VPWR Y
.ends

* Black-box entry subcircuit for sky130_fd_sc_hd__xor2_2 abstract view
.subckt sky130_fd_sc_hd__xor2_2 A B VGND VNB VPB VPWR X
.ends

* Black-box entry subcircuit for sky130_fd_sc_hd__nor2_1 abstract view
.subckt sky130_fd_sc_hd__nor2_1 A B VGND VNB VPB VPWR Y
.ends

* Black-box entry subcircuit for sky130_fd_sc_hd__and2_1 abstract view
.subckt sky130_fd_sc_hd__and2_1 A B VGND VNB VPB VPWR X
.ends

* Black-box entry subcircuit for sky130_fd_sc_hd__diode_2 abstract view
.subckt sky130_fd_sc_hd__diode_2 DIODE VGND VNB VPB VPWR
.ends

.subckt bmu bm_s0_s0_o[0] bm_s0_s0_o[1] bm_s0_s2_o[0] bm_s0_s2_o[1] bm_s1_s0_o[0]
+ bm_s1_s0_o[1] bm_s1_s2_o[0] bm_s1_s2_o[1] bm_s2_s1_o[0] bm_s2_s1_o[1] bm_s2_s3_o[0]
+ bm_s2_s3_o[1] bm_s3_s1_o[0] bm_s3_s1_o[1] bm_s3_s3_o[0] bm_s3_s3_o[1] piso_data_i[0]
+ piso_data_i[1] vccd1 vssd1
XFILLER_22_133 vssd1 vssd1 vccd1 vccd1 sky130_fd_sc_hd__decap_6
XFILLER_22_177 vccd1 vssd1 vccd1 vssd1 sky130_ef_sc_hd__decap_12
XTAP_TAPCELL_ROW_9_148 vssd1 vccd1 sky130_fd_sc_hd__tapvpwrvgnd_1
XFILLER_45_225 vccd1 vssd1 vccd1 vssd1 sky130_ef_sc_hd__decap_12
XFILLER_13_111 vssd1 vssd1 vccd1 vccd1 sky130_fd_sc_hd__fill_1
XFILLER_26_41 vccd1 vssd1 vccd1 vssd1 sky130_ef_sc_hd__decap_12
XFILLER_26_85 vccd1 vssd1 vccd1 vssd1 sky130_ef_sc_hd__decap_12
XFILLER_9_137 vccd1 vssd1 vccd1 vssd1 sky130_ef_sc_hd__decap_12
XTAP_TAPCELL_ROW_14_172 vssd1 vccd1 sky130_fd_sc_hd__tapvpwrvgnd_1
XTAP_TAPCELL_ROW_6_129 vssd1 vccd1 sky130_fd_sc_hd__tapvpwrvgnd_1
XFILLER_27_225 vccd1 vssd1 vccd1 vssd1 sky130_ef_sc_hd__decap_12
XTAP_TAPCELL_ROW_37_286 vssd1 vccd1 sky130_fd_sc_hd__tapvpwrvgnd_1
XFILLER_12_65 vccd1 vssd1 vccd1 vssd1 sky130_ef_sc_hd__decap_12
XFILLER_41_261 vccd1 vssd1 vccd1 vssd1 sky130_ef_sc_hd__decap_12
XTAP_TAPCELL_ROW_28_242 vssd1 vccd1 sky130_fd_sc_hd__tapvpwrvgnd_1
XFILLER_33_217 vssd1 vssd1 vccd1 vccd1 sky130_fd_sc_hd__decap_6
XTAP_TAPCELL_ROW_2_110 vssd1 vccd1 sky130_fd_sc_hd__tapvpwrvgnd_1
XFILLER_15_217 vssd1 vssd1 vccd1 vccd1 sky130_fd_sc_hd__decap_6
XFILLER_23_261 vccd1 vssd1 vccd1 vssd1 sky130_ef_sc_hd__decap_12
XFILLER_30_209 vccd1 vssd1 vccd1 vssd1 sky130_ef_sc_hd__decap_12
XFILLER_2_165 vccd1 vssd1 vccd1 vssd1 sky130_ef_sc_hd__decap_12
XFILLER_2_121 vccd1 vssd1 vccd1 vssd1 sky130_ef_sc_hd__decap_12
XFILLER_0_57 vccd1 vssd1 vccd1 vssd1 sky130_ef_sc_hd__decap_12
XFILLER_9_55 vssd1 vssd1 vccd1 vccd1 sky130_fd_sc_hd__fill_1
XFILLER_12_209 vccd1 vssd1 vccd1 vssd1 sky130_ef_sc_hd__decap_12
XFILLER_20_253 vccd1 vssd1 vccd1 vssd1 sky130_ef_sc_hd__decap_12
XFILLER_18_53 vccd1 vssd1 vccd1 vssd1 sky130_ef_sc_hd__decap_12
XFILLER_18_97 vccd1 vssd1 vccd1 vssd1 sky130_ef_sc_hd__decap_12
XFILLER_34_41 vccd1 vssd1 vccd1 vssd1 sky130_ef_sc_hd__decap_12
XFILLER_34_85 vccd1 vssd1 vccd1 vssd1 sky130_ef_sc_hd__decap_12
XFILLER_7_279 vssd1 vssd1 vccd1 vccd1 sky130_fd_sc_hd__fill_1
XFILLER_38_139 vssd1 vssd1 vccd1 vccd1 sky130_fd_sc_hd__fill_1
XFILLER_6_290 vssd1 vssd1 vccd1 vccd1 sky130_fd_sc_hd__decap_8
XFILLER_44_109 vccd1 vssd1 vccd1 vssd1 sky130_ef_sc_hd__decap_12
XFILLER_37_161 vssd1 vssd1 vccd1 vccd1 sky130_fd_sc_hd__decap_6
XFILLER_20_65 vccd1 vssd1 vccd1 vssd1 sky130_ef_sc_hd__decap_12
XFILLER_45_51 vssd1 vssd1 vccd1 vccd1 sky130_fd_sc_hd__decap_4
XFILLER_3_293 vssd1 vssd1 vccd1 vccd1 sky130_fd_sc_hd__decap_6
XFILLER_13_3 vccd1 vssd1 vccd1 vssd1 sky130_ef_sc_hd__decap_12
XFILLER_19_161 vssd1 vssd1 vccd1 vccd1 sky130_fd_sc_hd__decap_6
XFILLER_26_109 vccd1 vssd1 vccd1 vssd1 sky130_ef_sc_hd__decap_12
XFILLER_34_153 vccd1 vssd1 vccd1 vssd1 sky130_ef_sc_hd__decap_12
XFILLER_34_197 vccd1 vssd1 vccd1 vssd1 sky130_ef_sc_hd__decap_12
XFILLER_40_189 vssd1 vssd1 vccd1 vccd1 sky130_fd_sc_hd__decap_6
Xoutput7 net7 vssd1 vssd1 vccd1 vccd1 bm_s1_s0_o[0] sky130_fd_sc_hd__buf_4
XFILLER_16_153 vccd1 vssd1 vccd1 vssd1 sky130_ef_sc_hd__decap_12
XFILLER_16_197 vccd1 vssd1 vccd1 vssd1 sky130_ef_sc_hd__decap_12
XFILLER_31_167 vssd1 vssd1 vccd1 vccd1 sky130_fd_sc_hd__fill_1
XFILLER_39_223 vssd1 vssd1 vccd1 vccd1 sky130_fd_sc_hd__fill_1
XFILLER_22_189 vssd1 vssd1 vccd1 vccd1 sky130_fd_sc_hd__decap_6
XFILLER_45_237 vccd1 vssd1 vccd1 vssd1 sky130_ef_sc_hd__decap_12
XFILLER_9_105 vssd1 vssd1 vccd1 vccd1 sky130_fd_sc_hd__decap_6
XFILLER_13_167 vssd1 vssd1 vccd1 vccd1 sky130_fd_sc_hd__fill_1
XFILLER_26_53 vccd1 vssd1 vccd1 vssd1 sky130_ef_sc_hd__decap_12
XFILLER_26_97 vccd1 vssd1 vccd1 vssd1 sky130_ef_sc_hd__decap_12
XFILLER_42_85 vccd1 vssd1 vccd1 vssd1 sky130_ef_sc_hd__decap_12
XFILLER_42_41 vccd1 vssd1 vccd1 vssd1 sky130_ef_sc_hd__decap_12
XFILLER_9_149 vccd1 vssd1 vccd1 vssd1 sky130_ef_sc_hd__decap_12
XFILLER_3_57 vccd1 vssd1 vccd1 vssd1 sky130_ef_sc_hd__decap_12
XTAP_TAPCELL_ROW_14_173 vssd1 vccd1 sky130_fd_sc_hd__tapvpwrvgnd_1
XFILLER_27_237 vccd1 vssd1 vccd1 vssd1 sky130_ef_sc_hd__decap_12
XFILLER_35_281 vccd1 vssd1 vccd1 vssd1 sky130_ef_sc_hd__decap_12
XTAP_TAPCELL_ROW_37_287 vssd1 vccd1 sky130_fd_sc_hd__tapvpwrvgnd_1
XFILLER_12_77 vssd1 vssd1 vccd1 vccd1 sky130_fd_sc_hd__decap_6
XTAP_TAPCELL_ROW_28_243 vssd1 vccd1 sky130_fd_sc_hd__tapvpwrvgnd_1
XFILLER_41_273 vssd1 vssd1 vccd1 vccd1 sky130_fd_sc_hd__decap_6
XTAP_TAPCELL_ROW_11_154 vssd1 vccd1 sky130_fd_sc_hd__tapvpwrvgnd_1
XFILLER_17_281 vssd1 vssd1 vccd1 vccd1 sky130_fd_sc_hd__decap_6
XFILLER_32_251 vssd1 vssd1 vccd1 vccd1 sky130_fd_sc_hd__fill_1
XPHY_EDGE_ROW_12_Right_12 vssd1 vssd1 vccd1 vccd1 sky130_fd_sc_hd__decap_3
XTAP_TAPCELL_ROW_2_111 vssd1 vccd1 sky130_fd_sc_hd__tapvpwrvgnd_1
XPHY_EDGE_ROW_21_Right_21 vssd1 vssd1 vccd1 vccd1 sky130_fd_sc_hd__decap_3
XFILLER_23_273 vssd1 vssd1 vccd1 vccd1 sky130_fd_sc_hd__decap_6
XTAP_TAPCELL_ROW_25_224 vssd1 vccd1 sky130_fd_sc_hd__tapvpwrvgnd_1
XPHY_EDGE_ROW_30_Right_30 vssd1 vssd1 vccd1 vccd1 sky130_fd_sc_hd__decap_3
XFILLER_2_177 vccd1 vssd1 vccd1 vssd1 sky130_ef_sc_hd__decap_12
XFILLER_2_133 vssd1 vssd1 vccd1 vccd1 sky130_fd_sc_hd__decap_6
XFILLER_0_69 vccd1 vssd1 vccd1 vssd1 sky130_ef_sc_hd__decap_12
XFILLER_14_251 vssd1 vssd1 vccd1 vccd1 sky130_fd_sc_hd__fill_1
XFILLER_43_3 vccd1 vssd1 vccd1 vssd1 sky130_ef_sc_hd__decap_12
XFILLER_20_221 vccd1 vssd1 vccd1 vssd1 sky130_ef_sc_hd__decap_12
XFILLER_20_265 vccd1 vssd1 vccd1 vssd1 sky130_ef_sc_hd__decap_12
XFILLER_20_298 vssd1 vssd1 vccd1 vccd1 sky130_fd_sc_hd__fill_1
XFILLER_18_65 vccd1 vssd1 vccd1 vssd1 sky130_ef_sc_hd__decap_12
XFILLER_7_225 vccd1 vssd1 vccd1 vssd1 sky130_ef_sc_hd__decap_12
XFILLER_34_53 vccd1 vssd1 vccd1 vssd1 sky130_ef_sc_hd__decap_12
XFILLER_34_97 vccd1 vssd1 vccd1 vssd1 sky130_ef_sc_hd__decap_12
XPHY_EDGE_ROW_28_Left_75 vssd1 vssd1 vccd1 vccd1 sky130_fd_sc_hd__decap_3
XPHY_EDGE_ROW_12_Left_59 vssd1 vssd1 vccd1 vccd1 sky130_fd_sc_hd__decap_3
XFILLER_20_77 vssd1 vssd1 vccd1 vccd1 sky130_fd_sc_hd__decap_6
XFILLER_28_195 vssd1 vssd1 vccd1 vccd1 sky130_fd_sc_hd__fill_1
XFILLER_3_261 vccd1 vssd1 vccd1 vssd1 sky130_ef_sc_hd__decap_12
XFILLER_34_121 vccd1 vssd1 vccd1 vssd1 sky130_ef_sc_hd__decap_12
XFILLER_34_165 vccd1 vssd1 vccd1 vssd1 sky130_ef_sc_hd__decap_12
XPHY_EDGE_ROW_6_Right_6 vssd1 vssd1 vccd1 vccd1 sky130_fd_sc_hd__decap_3
XFILLER_15_55 vssd1 vssd1 vccd1 vccd1 sky130_fd_sc_hd__fill_1
XFILLER_0_253 vccd1 vssd1 vccd1 vssd1 sky130_ef_sc_hd__decap_12
Xoutput8 net8 vssd1 vssd1 vccd1 vccd1 bm_s1_s0_o[1] sky130_fd_sc_hd__buf_4
Xoutput10 net10 vssd1 vssd1 vccd1 vccd1 bm_s1_s2_o[1] sky130_fd_sc_hd__buf_4
XFILLER_16_121 vccd1 vssd1 vccd1 vssd1 sky130_ef_sc_hd__decap_12
XFILLER_16_165 vccd1 vssd1 vccd1 vssd1 sky130_ef_sc_hd__decap_12
XFILLER_31_113 vccd1 vssd1 vccd1 vssd1 sky130_ef_sc_hd__decap_12
XFILLER_39_279 vssd1 vssd1 vccd1 vccd1 sky130_fd_sc_hd__fill_1
XPHY_EDGE_ROW_15_Left_62 vssd1 vssd1 vccd1 vccd1 sky130_fd_sc_hd__decap_3
XFILLER_45_249 vccd1 vssd1 vccd1 vssd1 sky130_ef_sc_hd__decap_12
XFILLER_45_205 vccd1 vssd1 vccd1 vssd1 sky130_ef_sc_hd__decap_12
XFILLER_42_53 vccd1 vssd1 vccd1 vssd1 sky130_ef_sc_hd__decap_12
XFILLER_13_113 vccd1 vssd1 vccd1 vssd1 sky130_ef_sc_hd__decap_12
XFILLER_26_65 vccd1 vssd1 vccd1 vssd1 sky130_ef_sc_hd__decap_12
XFILLER_42_97 vccd1 vssd1 vccd1 vssd1 sky130_ef_sc_hd__decap_12
XFILLER_3_69 vccd1 vssd1 vccd1 vssd1 sky130_ef_sc_hd__decap_12
XFILLER_29_290 vssd1 vssd1 vccd1 vccd1 sky130_fd_sc_hd__decap_8
XFILLER_27_205 vccd1 vssd1 vccd1 vssd1 sky130_ef_sc_hd__decap_12
XFILLER_27_249 vccd1 vssd1 vccd1 vssd1 sky130_ef_sc_hd__decap_12
XFILLER_35_293 vssd1 vssd1 vccd1 vccd1 sky130_fd_sc_hd__decap_6
XTAP_TAPCELL_ROW_37_288 vssd1 vccd1 sky130_fd_sc_hd__tapvpwrvgnd_1
XFILLER_6_109 vccd1 vssd1 vccd1 vssd1 sky130_ef_sc_hd__decap_12
XTAP_TAPCELL_ROW_20_199 vssd1 vccd1 sky130_fd_sc_hd__tapvpwrvgnd_1
XPHY_EDGE_ROW_0_Left_47 vssd1 vssd1 vccd1 vccd1 sky130_fd_sc_hd__decap_3
XFILLER_37_53 vssd1 vssd1 vccd1 vccd1 sky130_fd_sc_hd__decap_3
XTAP_TAPCELL_ROW_11_155 vssd1 vccd1 sky130_fd_sc_hd__tapvpwrvgnd_1
XTAP_TAPCELL_ROW_34_269 vssd1 vccd1 sky130_fd_sc_hd__tapvpwrvgnd_1
XPHY_EDGE_ROW_42_Left_89 vssd1 vssd1 vccd1 vccd1 sky130_fd_sc_hd__decap_3
XTAP_TAPCELL_ROW_2_112 vssd1 vccd1 sky130_fd_sc_hd__tapvpwrvgnd_1
XFILLER_23_55 vssd1 vssd1 vccd1 vccd1 sky130_fd_sc_hd__fill_1
XTAP_TAPCELL_ROW_25_225 vssd1 vccd1 sky130_fd_sc_hd__tapvpwrvgnd_1
XFILLER_3_3 vccd1 vssd1 vccd1 vssd1 sky130_ef_sc_hd__decap_12
XFILLER_2_189 vssd1 vssd1 vccd1 vccd1 sky130_fd_sc_hd__decap_6
XFILLER_0_15 vccd1 vssd1 vccd1 vssd1 sky130_ef_sc_hd__decap_12
XFILLER_9_57 vccd1 vssd1 vccd1 vssd1 sky130_ef_sc_hd__decap_12
XFILLER_36_3 vccd1 vssd1 vccd1 vssd1 sky130_ef_sc_hd__decap_12
XFILLER_20_233 vccd1 vssd1 vccd1 vssd1 sky130_ef_sc_hd__decap_12
XFILLER_20_277 vssd1 vssd1 vccd1 vccd1 sky130_fd_sc_hd__decap_8
XTAP_TAPCELL_ROW_30_250 vssd1 vccd1 sky130_fd_sc_hd__tapvpwrvgnd_1
XFILLER_18_77 vssd1 vssd1 vccd1 vccd1 sky130_fd_sc_hd__decap_6
XFILLER_7_237 vccd1 vssd1 vccd1 vssd1 sky130_ef_sc_hd__decap_12
XFILLER_34_65 vccd1 vssd1 vccd1 vssd1 sky130_ef_sc_hd__decap_12
XFILLER_46_141 vccd1 vssd1 vccd1 vssd1 sky130_ef_sc_hd__decap_12
XPHY_EDGE_ROW_3_Left_50 vssd1 vssd1 vccd1 vccd1 sky130_fd_sc_hd__decap_3
XTAP_TAPCELL_ROW_44_320 vssd1 vccd1 sky130_fd_sc_hd__tapvpwrvgnd_1
XPHY_EDGE_ROW_45_Left_92 vssd1 vssd1 vccd1 vccd1 sky130_fd_sc_hd__decap_3
XFILLER_28_141 vccd1 vssd1 vccd1 vssd1 sky130_ef_sc_hd__decap_12
XFILLER_43_111 vssd1 vssd1 vccd1 vccd1 sky130_fd_sc_hd__fill_1
XFILLER_3_273 vssd1 vssd1 vccd1 vccd1 sky130_fd_sc_hd__decap_6
XFILLER_34_133 vssd1 vssd1 vccd1 vccd1 sky130_fd_sc_hd__decap_6
XFILLER_34_177 vccd1 vssd1 vccd1 vssd1 sky130_ef_sc_hd__decap_12
XFILLER_25_111 vssd1 vssd1 vccd1 vccd1 sky130_fd_sc_hd__fill_1
XFILLER_31_55 vssd1 vssd1 vccd1 vccd1 sky130_fd_sc_hd__fill_1
XFILLER_0_221 vssd1 vssd1 vccd1 vccd1 sky130_fd_sc_hd__decap_3
XFILLER_0_265 vccd1 vssd1 vccd1 vssd1 sky130_ef_sc_hd__decap_12
Xoutput9 net9 vssd1 vssd1 vccd1 vccd1 bm_s1_s2_o[0] sky130_fd_sc_hd__buf_4
Xoutput11 net11 vssd1 vssd1 vccd1 vccd1 bm_s2_s1_o[0] sky130_fd_sc_hd__buf_4
XFILLER_16_133 vssd1 vssd1 vccd1 vccd1 sky130_fd_sc_hd__decap_6
XFILLER_16_177 vccd1 vssd1 vccd1 vssd1 sky130_ef_sc_hd__decap_12
XFILLER_31_125 vccd1 vssd1 vccd1 vssd1 sky130_ef_sc_hd__decap_12
XFILLER_31_169 vccd1 vssd1 vccd1 vssd1 sky130_ef_sc_hd__decap_12
XFILLER_39_225 vccd1 vssd1 vccd1 vssd1 sky130_ef_sc_hd__decap_12
XFILLER_45_217 vssd1 vssd1 vccd1 vccd1 sky130_fd_sc_hd__decap_6
XFILLER_42_65 vccd1 vssd1 vccd1 vssd1 sky130_ef_sc_hd__decap_12
XFILLER_13_125 vccd1 vssd1 vccd1 vssd1 sky130_ef_sc_hd__decap_12
XFILLER_13_169 vccd1 vssd1 vccd1 vssd1 sky130_ef_sc_hd__decap_12
XFILLER_26_77 vssd1 vssd1 vccd1 vccd1 sky130_fd_sc_hd__decap_6
XTAP_TAPCELL_ROW_8_140 vssd1 vccd1 sky130_fd_sc_hd__tapvpwrvgnd_1
XFILLER_3_15 vccd1 vssd1 vccd1 vssd1 sky130_ef_sc_hd__decap_12
XFILLER_8_195 vssd1 vssd1 vccd1 vccd1 sky130_fd_sc_hd__fill_1
XFILLER_42_209 vccd1 vssd1 vccd1 vssd1 sky130_ef_sc_hd__decap_12
XFILLER_27_217 vssd1 vssd1 vccd1 vccd1 sky130_fd_sc_hd__decap_6
XFILLER_10_139 vssd1 vssd1 vccd1 vccd1 sky130_fd_sc_hd__fill_1
XFILLER_35_261 vccd1 vssd1 vccd1 vssd1 sky130_ef_sc_hd__decap_12
XFILLER_37_21 vccd1 vssd1 vccd1 vssd1 sky130_ef_sc_hd__decap_12
XTAP_TAPCELL_ROW_11_156 vssd1 vccd1 sky130_fd_sc_hd__tapvpwrvgnd_1
XFILLER_24_209 vccd1 vssd1 vccd1 vssd1 sky130_ef_sc_hd__decap_12
XFILLER_17_261 vccd1 vssd1 vccd1 vssd1 sky130_ef_sc_hd__decap_12
XFILLER_32_253 vccd1 vssd1 vccd1 vssd1 sky130_ef_sc_hd__decap_12
XFILLER_32_297 vssd1 vssd1 vccd1 vccd1 sky130_fd_sc_hd__fill_2
XTAP_TAPCELL_ROW_2_113 vssd1 vccd1 sky130_fd_sc_hd__tapvpwrvgnd_1
XTAP_TAPCELL_ROW_25_226 vssd1 vccd1 sky130_fd_sc_hd__tapvpwrvgnd_1
XFILLER_0_27 vssd1 vssd1 vccd1 vccd1 sky130_fd_sc_hd__fill_1
XFILLER_9_69 vccd1 vssd1 vccd1 vssd1 sky130_ef_sc_hd__decap_12
XFILLER_14_253 vccd1 vssd1 vccd1 vssd1 sky130_ef_sc_hd__decap_12
XFILLER_14_297 vssd1 vssd1 vccd1 vccd1 sky130_fd_sc_hd__fill_2
XFILLER_29_3 vccd1 vssd1 vccd1 vssd1 sky130_ef_sc_hd__decap_12
XFILLER_20_245 vssd1 vssd1 vccd1 vccd1 sky130_fd_sc_hd__decap_6
XTAP_TAPCELL_ROW_30_251 vssd1 vccd1 sky130_fd_sc_hd__tapvpwrvgnd_1
XFILLER_11_223 vssd1 vssd1 vccd1 vccd1 sky130_fd_sc_hd__fill_1
XFILLER_34_77 vssd1 vssd1 vccd1 vccd1 sky130_fd_sc_hd__decap_6
XFILLER_7_249 vccd1 vssd1 vccd1 vssd1 sky130_ef_sc_hd__decap_12
XFILLER_7_205 vccd1 vssd1 vccd1 vssd1 sky130_ef_sc_hd__decap_12
XFILLER_38_109 vccd1 vssd1 vccd1 vssd1 sky130_ef_sc_hd__decap_12
XFILLER_46_197 vccd1 vssd1 vccd1 vssd1 sky130_ef_sc_hd__decap_12
XFILLER_46_153 vccd1 vssd1 vccd1 vssd1 sky130_ef_sc_hd__decap_12
XTAP_TAPCELL_ROW_44_321 vssd1 vccd1 sky130_fd_sc_hd__tapvpwrvgnd_1
XFILLER_1_81 vccd1 vssd1 vccd1 vssd1 sky130_ef_sc_hd__decap_12
XFILLER_28_153 vccd1 vssd1 vccd1 vssd1 sky130_ef_sc_hd__decap_12
XFILLER_28_197 vccd1 vssd1 vccd1 vssd1 sky130_ef_sc_hd__decap_12
XFILLER_29_55 vssd1 vssd1 vccd1 vccd1 sky130_fd_sc_hd__fill_1
XFILLER_43_167 vssd1 vssd1 vccd1 vccd1 sky130_fd_sc_hd__fill_1
XFILLER_6_15 vccd1 vssd1 vccd1 vssd1 sky130_ef_sc_hd__decap_12
XFILLER_34_189 vssd1 vssd1 vccd1 vccd1 sky130_fd_sc_hd__decap_6
XFILLER_15_57 vccd1 vssd1 vccd1 vssd1 sky130_ef_sc_hd__decap_12
XFILLER_25_167 vssd1 vssd1 vccd1 vccd1 sky130_fd_sc_hd__fill_1
Xoutput12 net12 vssd1 vssd1 vccd1 vccd1 bm_s2_s1_o[1] sky130_fd_sc_hd__buf_4
XFILLER_0_277 vssd1 vssd1 vccd1 vccd1 sky130_fd_sc_hd__decap_3
XFILLER_16_189 vssd1 vssd1 vccd1 vccd1 sky130_fd_sc_hd__decap_6
XFILLER_31_137 vccd1 vssd1 vccd1 vssd1 sky130_ef_sc_hd__decap_12
XFILLER_39_237 vccd1 vssd1 vccd1 vssd1 sky130_ef_sc_hd__decap_12
XFILLER_11_3 vccd1 vssd1 vccd1 vssd1 sky130_ef_sc_hd__decap_12
XTAP_TAPCELL_ROW_17_184 vssd1 vccd1 sky130_fd_sc_hd__tapvpwrvgnd_1
XFILLER_42_77 vssd1 vssd1 vccd1 vccd1 sky130_fd_sc_hd__decap_6
XFILLER_13_137 vccd1 vssd1 vccd1 vssd1 sky130_ef_sc_hd__decap_12
XFILLER_21_181 vccd1 vssd1 vccd1 vssd1 sky130_ef_sc_hd__decap_12
XTAP_TAPCELL_ROW_8_141 vssd1 vccd1 sky130_fd_sc_hd__tapvpwrvgnd_1
XFILLER_3_27 vccd1 vssd1 vccd1 vssd1 sky130_ef_sc_hd__decap_12
XFILLER_29_281 vssd1 vssd1 vccd1 vccd1 sky130_fd_sc_hd__decap_6
XFILLER_44_251 vssd1 vssd1 vccd1 vccd1 sky130_fd_sc_hd__fill_1
XFILLER_8_141 vccd1 vssd1 vccd1 vssd1 sky130_ef_sc_hd__decap_12
XFILLER_35_273 vssd1 vssd1 vccd1 vccd1 sky130_fd_sc_hd__decap_6
XFILLER_37_33 vccd1 vssd1 vccd1 vssd1 sky130_ef_sc_hd__decap_12
XFILLER_26_251 vssd1 vssd1 vccd1 vccd1 sky130_fd_sc_hd__fill_1
XFILLER_5_111 vssd1 vssd1 vccd1 vccd1 sky130_fd_sc_hd__fill_1
XTAP_TAPCELL_ROW_11_157 vssd1 vccd1 sky130_fd_sc_hd__tapvpwrvgnd_1
XFILLER_17_273 vssd1 vssd1 vccd1 vccd1 sky130_fd_sc_hd__decap_6
XFILLER_32_221 vccd1 vssd1 vccd1 vssd1 sky130_ef_sc_hd__decap_12
XFILLER_32_265 vccd1 vssd1 vccd1 vssd1 sky130_ef_sc_hd__decap_12
XTAP_TAPCELL_ROW_25_227 vssd1 vccd1 sky130_fd_sc_hd__tapvpwrvgnd_1
XFILLER_23_57 vccd1 vssd1 vccd1 vssd1 sky130_ef_sc_hd__decap_12
XFILLER_9_15 vccd1 vssd1 vccd1 vssd1 sky130_ef_sc_hd__decap_12
XFILLER_14_221 vccd1 vssd1 vccd1 vssd1 sky130_ef_sc_hd__decap_12
XFILLER_14_265 vccd1 vssd1 vccd1 vssd1 sky130_ef_sc_hd__decap_12
XTAP_TAPCELL_ROW_30_252 vssd1 vccd1 sky130_fd_sc_hd__tapvpwrvgnd_1
XFILLER_7_217 vssd1 vssd1 vccd1 vccd1 sky130_fd_sc_hd__decap_6
XFILLER_11_279 vssd1 vssd1 vccd1 vccd1 sky130_fd_sc_hd__fill_1
XFILLER_46_165 vssd1 vssd1 vccd1 vccd1 sky130_fd_sc_hd__decap_3
XTAP_TAPCELL_ROW_44_322 vssd1 vccd1 sky130_fd_sc_hd__tapvpwrvgnd_1
XFILLER_41_3 vccd1 vssd1 vccd1 vssd1 sky130_ef_sc_hd__decap_12
XFILLER_1_93 vccd1 vssd1 vccd1 vssd1 sky130_ef_sc_hd__decap_12
XFILLER_4_209 vccd1 vssd1 vccd1 vssd1 sky130_ef_sc_hd__decap_12
XFILLER_45_55 vssd1 vssd1 vccd1 vccd1 sky130_fd_sc_hd__fill_1
XFILLER_43_113 vccd1 vssd1 vccd1 vssd1 sky130_ef_sc_hd__decap_12
XFILLER_28_121 vccd1 vssd1 vccd1 vssd1 sky130_ef_sc_hd__decap_12
XFILLER_28_165 vccd1 vssd1 vccd1 vssd1 sky130_ef_sc_hd__decap_12
XFILLER_6_27 vssd1 vssd1 vccd1 vccd1 sky130_fd_sc_hd__fill_1
XFILLER_25_113 vccd1 vssd1 vccd1 vssd1 sky130_ef_sc_hd__decap_12
XFILLER_15_69 vccd1 vssd1 vccd1 vssd1 sky130_ef_sc_hd__decap_12
XFILLER_31_57 vccd1 vssd1 vccd1 vssd1 sky130_ef_sc_hd__decap_12
Xoutput13 net13 vssd1 vssd1 vccd1 vccd1 bm_s2_s3_o[0] sky130_fd_sc_hd__buf_4
XPHY_EDGE_ROW_19_Right_19 vssd1 vssd1 vccd1 vccd1 sky130_fd_sc_hd__decap_3
XFILLER_31_105 vssd1 vssd1 vccd1 vccd1 sky130_fd_sc_hd__decap_6
XFILLER_31_149 vccd1 vssd1 vccd1 vssd1 sky130_ef_sc_hd__decap_12
XFILLER_39_205 vccd1 vssd1 vccd1 vssd1 sky130_ef_sc_hd__decap_12
XPHY_EDGE_ROW_28_Right_28 vssd1 vssd1 vccd1 vccd1 sky130_fd_sc_hd__decap_3
XFILLER_39_249 vccd1 vssd1 vccd1 vssd1 sky130_ef_sc_hd__decap_12
XPHY_EDGE_ROW_37_Right_37 vssd1 vssd1 vccd1 vccd1 sky130_fd_sc_hd__decap_3
XTAP_TAPCELL_ROW_17_185 vssd1 vccd1 sky130_fd_sc_hd__tapvpwrvgnd_1
XPHY_EDGE_ROW_46_Right_46 vssd1 vssd1 vccd1 vccd1 sky130_fd_sc_hd__decap_3
XFILLER_7_81 vccd1 vssd1 vccd1 vssd1 sky130_ef_sc_hd__decap_12
XFILLER_13_105 vssd1 vssd1 vccd1 vccd1 sky130_fd_sc_hd__decap_6
XFILLER_13_149 vccd1 vssd1 vccd1 vssd1 sky130_ef_sc_hd__decap_12
XFILLER_21_193 vccd1 vssd1 vccd1 vssd1 sky130_ef_sc_hd__decap_12
XTAP_TAPCELL_ROW_8_142 vssd1 vccd1 sky130_fd_sc_hd__tapvpwrvgnd_1
XFILLER_3_39 vccd1 vssd1 vccd1 vssd1 sky130_ef_sc_hd__decap_12
XFILLER_8_197 vccd1 vssd1 vccd1 vssd1 sky130_ef_sc_hd__decap_12
XFILLER_8_153 vccd1 vssd1 vccd1 vssd1 sky130_ef_sc_hd__decap_12
XPHY_EDGE_ROW_19_Left_66 vssd1 vssd1 vccd1 vccd1 sky130_fd_sc_hd__decap_3
XFILLER_12_15 vccd1 vssd1 vccd1 vssd1 sky130_ef_sc_hd__decap_12
XFILLER_37_45 vssd1 vssd1 vccd1 vccd1 sky130_fd_sc_hd__decap_8
XTAP_TAPCELL_ROW_36_280 vssd1 vccd1 sky130_fd_sc_hd__tapvpwrvgnd_1
XFILLER_5_167 vssd1 vssd1 vccd1 vccd1 sky130_fd_sc_hd__fill_1
XTAP_TAPCELL_ROW_11_158 vssd1 vccd1 sky130_fd_sc_hd__tapvpwrvgnd_1
XFILLER_32_233 vccd1 vssd1 vccd1 vssd1 sky130_ef_sc_hd__decap_12
XFILLER_32_277 vccd1 vssd1 vccd1 vssd1 sky130_ef_sc_hd__decap_12
XTAP_TAPCELL_ROW_25_228 vssd1 vccd1 sky130_fd_sc_hd__tapvpwrvgnd_1
XFILLER_23_69 vccd1 vssd1 vccd1 vssd1 sky130_ef_sc_hd__decap_12
XFILLER_0_29 vccd1 vssd1 vccd1 vssd1 sky130_ef_sc_hd__decap_12
XFILLER_9_27 vccd1 vssd1 vccd1 vssd1 sky130_ef_sc_hd__decap_12
XFILLER_14_233 vccd1 vssd1 vccd1 vssd1 sky130_ef_sc_hd__decap_12
XFILLER_14_277 vccd1 vssd1 vccd1 vssd1 sky130_ef_sc_hd__decap_12
XTAP_TAPCELL_ROW_0_94 vssd1 vccd1 sky130_fd_sc_hd__tapvpwrvgnd_1
XFILLER_1_181 vccd1 vssd1 vccd1 vssd1 sky130_ef_sc_hd__decap_12
XTAP_TAPCELL_ROW_22_209 vssd1 vccd1 sky130_fd_sc_hd__tapvpwrvgnd_1
XFILLER_9_281 vccd1 vssd1 vccd1 vssd1 sky130_ef_sc_hd__decap_12
XTAP_TAPCELL_ROW_30_253 vssd1 vccd1 sky130_fd_sc_hd__tapvpwrvgnd_1
XFILLER_11_225 vccd1 vssd1 vccd1 vssd1 sky130_ef_sc_hd__decap_12
XFILLER_1_3 vccd1 vssd1 vccd1 vssd1 sky130_ef_sc_hd__decap_12
XTAP_TAPCELL_ROW_44_323 vssd1 vccd1 sky130_fd_sc_hd__tapvpwrvgnd_1
XFILLER_6_251 vssd1 vssd1 vccd1 vccd1 sky130_fd_sc_hd__fill_1
XFILLER_34_3 vccd1 vssd1 vccd1 vssd1 sky130_ef_sc_hd__decap_12
XFILLER_37_111 vssd1 vssd1 vccd1 vccd1 sky130_fd_sc_hd__fill_1
XFILLER_20_15 vccd1 vssd1 vccd1 vssd1 sky130_ef_sc_hd__decap_12
XFILLER_29_57 vccd1 vssd1 vccd1 vssd1 sky130_ef_sc_hd__decap_12
XFILLER_43_169 vccd1 vssd1 vccd1 vssd1 sky130_ef_sc_hd__decap_12
XFILLER_43_125 vccd1 vssd1 vccd1 vssd1 sky130_ef_sc_hd__decap_12
XTAP_TAPCELL_ROW_41_304 vssd1 vccd1 sky130_fd_sc_hd__tapvpwrvgnd_1
XFILLER_28_133 vssd1 vssd1 vccd1 vccd1 sky130_fd_sc_hd__decap_6
XFILLER_28_177 vccd1 vssd1 vccd1 vssd1 sky130_ef_sc_hd__decap_12
XPHY_EDGE_ROW_7_Left_54 vssd1 vssd1 vccd1 vccd1 sky130_fd_sc_hd__decap_3
XFILLER_19_111 vssd1 vssd1 vccd1 vccd1 sky130_fd_sc_hd__fill_1
XFILLER_15_15 vccd1 vssd1 vccd1 vssd1 sky130_ef_sc_hd__decap_12
XFILLER_25_125 vccd1 vssd1 vccd1 vssd1 sky130_ef_sc_hd__decap_12
XFILLER_25_169 vccd1 vssd1 vccd1 vssd1 sky130_ef_sc_hd__decap_12
XFILLER_40_139 vssd1 vssd1 vccd1 vccd1 sky130_fd_sc_hd__fill_1
XFILLER_31_69 vccd1 vssd1 vccd1 vssd1 sky130_ef_sc_hd__decap_12
Xoutput14 net14 vssd1 vssd1 vccd1 vccd1 bm_s2_s3_o[1] sky130_fd_sc_hd__buf_4
XFILLER_39_217 vssd1 vssd1 vccd1 vccd1 sky130_fd_sc_hd__decap_6
XTAP_TAPCELL_ROW_17_186 vssd1 vccd1 sky130_fd_sc_hd__tapvpwrvgnd_1
XFILLER_22_139 vssd1 vssd1 vccd1 vccd1 sky130_fd_sc_hd__fill_1
XFILLER_7_93 vccd1 vssd1 vccd1 vssd1 sky130_ef_sc_hd__decap_12
XFILLER_21_161 vssd1 vssd1 vccd1 vccd1 sky130_fd_sc_hd__decap_6
XTAP_TAPCELL_ROW_8_143 vssd1 vccd1 sky130_fd_sc_hd__tapvpwrvgnd_1
XFILLER_44_253 vccd1 vssd1 vccd1 vssd1 sky130_ef_sc_hd__decap_12
XFILLER_29_261 vccd1 vssd1 vccd1 vssd1 sky130_ef_sc_hd__decap_12
XFILLER_36_209 vccd1 vssd1 vccd1 vssd1 sky130_ef_sc_hd__decap_12
XFILLER_44_297 vssd1 vssd1 vccd1 vccd1 sky130_fd_sc_hd__fill_2
XFILLER_8_121 vccd1 vssd1 vccd1 vssd1 sky130_ef_sc_hd__decap_12
XFILLER_8_165 vccd1 vssd1 vccd1 vssd1 sky130_ef_sc_hd__decap_12
XFILLER_10_109 vccd1 vssd1 vccd1 vssd1 sky130_ef_sc_hd__decap_12
XFILLER_12_27 vssd1 vssd1 vccd1 vccd1 sky130_fd_sc_hd__fill_1
XTAP_TAPCELL_ROW_5_124 vssd1 vccd1 sky130_fd_sc_hd__tapvpwrvgnd_1
XFILLER_18_209 vccd1 vssd1 vccd1 vssd1 sky130_ef_sc_hd__decap_12
XFILLER_26_253 vccd1 vssd1 vccd1 vssd1 sky130_ef_sc_hd__decap_12
XFILLER_37_57 vccd1 vssd1 vccd1 vssd1 sky130_ef_sc_hd__decap_12
XFILLER_41_223 vssd1 vssd1 vccd1 vccd1 sky130_fd_sc_hd__fill_1
XFILLER_26_286 vccd1 vssd1 vccd1 vssd1 sky130_ef_sc_hd__decap_12
XTAP_TAPCELL_ROW_36_281 vssd1 vccd1 sky130_fd_sc_hd__tapvpwrvgnd_1
XFILLER_5_113 vccd1 vssd1 vccd1 vssd1 sky130_ef_sc_hd__decap_12
XPHY_EDGE_ROW_36_Left_83 vssd1 vssd1 vccd1 vccd1 sky130_fd_sc_hd__decap_3
XPHY_EDGE_ROW_20_Left_67 vssd1 vssd1 vccd1 vccd1 sky130_fd_sc_hd__decap_3
XFILLER_32_245 vssd1 vssd1 vccd1 vccd1 sky130_fd_sc_hd__decap_6
XFILLER_32_289 vssd1 vssd1 vccd1 vccd1 sky130_fd_sc_hd__decap_8
XFILLER_4_83 vssd1 vssd1 vccd1 vccd1 sky130_fd_sc_hd__fill_1
XFILLER_23_15 vccd1 vssd1 vccd1 vssd1 sky130_ef_sc_hd__decap_12
XFILLER_23_223 vssd1 vssd1 vccd1 vccd1 sky130_fd_sc_hd__fill_1
XFILLER_14_245 vssd1 vssd1 vccd1 vccd1 sky130_fd_sc_hd__decap_6
XFILLER_9_39 vccd1 vssd1 vccd1 vssd1 sky130_ef_sc_hd__decap_12
XFILLER_13_81 vccd1 vssd1 vccd1 vssd1 sky130_ef_sc_hd__decap_12
XFILLER_14_289 vssd1 vssd1 vccd1 vccd1 sky130_fd_sc_hd__decap_8
XTAP_TAPCELL_ROW_0_95 vssd1 vccd1 sky130_fd_sc_hd__tapvpwrvgnd_1
XFILLER_1_193 vccd1 vssd1 vccd1 vssd1 sky130_ef_sc_hd__decap_12
XFILLER_9_293 vssd1 vssd1 vccd1 vccd1 sky130_fd_sc_hd__decap_6
XFILLER_18_15 vccd1 vssd1 vccd1 vssd1 sky130_ef_sc_hd__decap_12
XFILLER_11_237 vccd1 vssd1 vccd1 vssd1 sky130_ef_sc_hd__decap_12
XFILLER_6_285 vssd1 vssd1 vccd1 vccd1 sky130_fd_sc_hd__fill_2
XFILLER_27_3 vccd1 vssd1 vccd1 vssd1 sky130_ef_sc_hd__decap_12
XFILLER_1_51 vssd1 vssd1 vccd1 vccd1 sky130_fd_sc_hd__decap_4
XFILLER_37_167 vssd1 vssd1 vccd1 vccd1 sky130_fd_sc_hd__fill_1
XPHY_EDGE_ROW_23_Left_70 vssd1 vssd1 vccd1 vccd1 sky130_fd_sc_hd__decap_3
XFILLER_20_27 vssd1 vssd1 vccd1 vccd1 sky130_fd_sc_hd__fill_1
XFILLER_29_69 vccd1 vssd1 vccd1 vssd1 sky130_ef_sc_hd__decap_12
XFILLER_45_57 vccd1 vssd1 vccd1 vssd1 sky130_ef_sc_hd__decap_12
XFILLER_43_137 vccd1 vssd1 vccd1 vssd1 sky130_ef_sc_hd__decap_12
XTAP_TAPCELL_ROW_41_305 vssd1 vccd1 sky130_fd_sc_hd__tapvpwrvgnd_1
XFILLER_28_189 vssd1 vssd1 vccd1 vccd1 sky130_fd_sc_hd__decap_6
XFILLER_6_29 vccd1 vssd1 vccd1 vssd1 sky130_ef_sc_hd__decap_12
XFILLER_19_167 vssd1 vssd1 vccd1 vccd1 sky130_fd_sc_hd__fill_1
XFILLER_15_27 vccd1 vssd1 vccd1 vssd1 sky130_ef_sc_hd__decap_12
X_09_ net3 vssd1 vssd1 vccd1 vccd1 net9 sky130_fd_sc_hd__clkbuf_1
XFILLER_25_137 vccd1 vssd1 vccd1 vssd1 sky130_ef_sc_hd__decap_12
XFILLER_33_181 vccd1 vssd1 vccd1 vssd1 sky130_ef_sc_hd__decap_12
XFILLER_31_15 vccd1 vssd1 vccd1 vssd1 sky130_ef_sc_hd__decap_12
XFILLER_0_225 vccd1 vssd1 vccd1 vssd1 sky130_ef_sc_hd__decap_12
XPHY_EDGE_ROW_1_Right_1 vssd1 vssd1 vccd1 vccd1 sky130_fd_sc_hd__decap_3
Xoutput15 net15 vssd1 vssd1 vccd1 vccd1 bm_s3_s1_o[0] sky130_fd_sc_hd__buf_4
XFILLER_21_81 vccd1 vssd1 vccd1 vssd1 sky130_ef_sc_hd__decap_12
XTAP_TAPCELL_ROW_17_187 vssd1 vccd1 sky130_fd_sc_hd__tapvpwrvgnd_1
XFILLER_15_181 vccd1 vssd1 vccd1 vssd1 sky130_ef_sc_hd__decap_12
XFILLER_30_195 vssd1 vssd1 vccd1 vccd1 sky130_fd_sc_hd__fill_1
XFILLER_38_251 vssd1 vssd1 vccd1 vccd1 sky130_fd_sc_hd__fill_1
XFILLER_26_15 vccd1 vssd1 vccd1 vssd1 sky130_ef_sc_hd__decap_12
XFILLER_44_265 vccd1 vssd1 vccd1 vssd1 sky130_ef_sc_hd__decap_12
XFILLER_44_221 vccd1 vssd1 vccd1 vssd1 sky130_ef_sc_hd__decap_12
XFILLER_29_273 vssd1 vssd1 vccd1 vccd1 sky130_fd_sc_hd__decap_6
XFILLER_8_177 vccd1 vssd1 vccd1 vssd1 sky130_ef_sc_hd__decap_12
XFILLER_8_133 vssd1 vssd1 vccd1 vccd1 sky130_fd_sc_hd__decap_6
XFILLER_12_195 vssd1 vssd1 vccd1 vccd1 sky130_fd_sc_hd__fill_1
XTAP_TAPCELL_ROW_5_125 vssd1 vccd1 sky130_fd_sc_hd__tapvpwrvgnd_1
XFILLER_26_221 vccd1 vssd1 vccd1 vssd1 sky130_ef_sc_hd__decap_12
XFILLER_26_265 vccd1 vssd1 vccd1 vssd1 sky130_ef_sc_hd__decap_12
XFILLER_26_298 vssd1 vssd1 vccd1 vccd1 sky130_fd_sc_hd__fill_1
XFILLER_37_69 vccd1 vssd1 vccd1 vssd1 sky130_ef_sc_hd__decap_12
XFILLER_41_279 vssd1 vssd1 vccd1 vccd1 sky130_fd_sc_hd__fill_1
XTAP_TAPCELL_ROW_36_282 vssd1 vccd1 sky130_fd_sc_hd__tapvpwrvgnd_1
XFILLER_5_169 vccd1 vssd1 vccd1 vssd1 sky130_ef_sc_hd__decap_12
XFILLER_5_125 vccd1 vssd1 vccd1 vssd1 sky130_ef_sc_hd__decap_12
XFILLER_17_298 vssd1 vssd1 vccd1 vccd1 sky130_fd_sc_hd__fill_1
XFILLER_40_290 vssd1 vssd1 vccd1 vccd1 sky130_fd_sc_hd__decap_3
XFILLER_23_27 vccd1 vssd1 vccd1 vssd1 sky130_ef_sc_hd__decap_12
XFILLER_23_279 vssd1 vssd1 vccd1 vccd1 sky130_fd_sc_hd__fill_1
XFILLER_2_139 vssd1 vssd1 vccd1 vccd1 sky130_fd_sc_hd__fill_1
XFILLER_13_93 vccd1 vssd1 vccd1 vssd1 sky130_ef_sc_hd__decap_12
XTAP_TAPCELL_ROW_0_96 vssd1 vccd1 sky130_fd_sc_hd__tapvpwrvgnd_1
XFILLER_1_161 vssd1 vssd1 vccd1 vccd1 sky130_fd_sc_hd__decap_6
XFILLER_9_261 vccd1 vssd1 vccd1 vssd1 sky130_ef_sc_hd__decap_12
XFILLER_13_290 vssd1 vssd1 vccd1 vccd1 sky130_fd_sc_hd__decap_3
XFILLER_18_27 vssd1 vssd1 vccd1 vccd1 sky130_fd_sc_hd__fill_1
XFILLER_11_205 vccd1 vssd1 vccd1 vssd1 sky130_ef_sc_hd__decap_12
XFILLER_34_15 vccd1 vssd1 vccd1 vssd1 sky130_ef_sc_hd__decap_12
XFILLER_11_249 vccd1 vssd1 vccd1 vssd1 sky130_ef_sc_hd__decap_12
XFILLER_46_113 vccd1 vssd1 vccd1 vssd1 sky130_ef_sc_hd__decap_12
XFILLER_6_253 vccd1 vssd1 vccd1 vssd1 sky130_ef_sc_hd__decap_12
XFILLER_37_113 vccd1 vssd1 vccd1 vssd1 sky130_ef_sc_hd__decap_12
XFILLER_29_15 vccd1 vssd1 vccd1 vssd1 sky130_ef_sc_hd__decap_12
XFILLER_43_105 vssd1 vssd1 vccd1 vccd1 sky130_fd_sc_hd__decap_6
XFILLER_45_69 vccd1 vssd1 vccd1 vssd1 sky130_ef_sc_hd__decap_12
XFILLER_43_149 vccd1 vssd1 vccd1 vssd1 sky130_ef_sc_hd__decap_12
XTAP_TAPCELL_ROW_41_306 vssd1 vccd1 sky130_fd_sc_hd__tapvpwrvgnd_1
XFILLER_3_223 vssd1 vssd1 vccd1 vccd1 sky130_fd_sc_hd__fill_1
XFILLER_10_83 vssd1 vssd1 vccd1 vccd1 sky130_fd_sc_hd__fill_1
XFILLER_19_113 vccd1 vssd1 vccd1 vssd1 sky130_ef_sc_hd__decap_12
XFILLER_19_81 vccd1 vssd1 vccd1 vssd1 sky130_ef_sc_hd__decap_12
X_08_ net6 vssd1 vssd1 vccd1 vccd1 net8 sky130_fd_sc_hd__clkbuf_1
XFILLER_25_105 vssd1 vssd1 vccd1 vccd1 sky130_fd_sc_hd__decap_6
XFILLER_15_39 vccd1 vssd1 vccd1 vssd1 sky130_ef_sc_hd__decap_12
XFILLER_25_149 vccd1 vssd1 vccd1 vssd1 sky130_ef_sc_hd__decap_12
XFILLER_33_193 vccd1 vssd1 vccd1 vssd1 sky130_ef_sc_hd__decap_12
XFILLER_31_27 vccd1 vssd1 vccd1 vssd1 sky130_ef_sc_hd__decap_12
Xoutput16 net16 vssd1 vssd1 vccd1 vccd1 bm_s3_s1_o[1] sky130_fd_sc_hd__buf_4
XFILLER_0_237 vccd1 vssd1 vccd1 vssd1 sky130_ef_sc_hd__decap_12
XFILLER_21_93 vccd1 vssd1 vccd1 vssd1 sky130_ef_sc_hd__decap_12
XFILLER_15_193 vccd1 vssd1 vccd1 vssd1 sky130_ef_sc_hd__decap_12
XTAP_TAPCELL_ROW_17_188 vssd1 vccd1 sky130_fd_sc_hd__tapvpwrvgnd_1
XFILLER_7_51 vssd1 vssd1 vccd1 vccd1 sky130_fd_sc_hd__decap_4